  Page 1                                    Tue Feb 02 21:10:09 2016

  ******************************************************************
  *                           E P A N E T                          *
  *                   Hydraulic and Water Quality                  *
  *                   Analysis for Pipe Networks                   *
  *                         Version 2.00.12                        *
  ******************************************************************
  
   
      Input Data File ................... pipeline.inp
      Number of Junctions................ 10
      Number of Reservoirs............... 1
      Number of Tanks ................... 0
      Number of Pipes ................... 10
      Number of Pumps ................... 0
      Number of Valves .................. 0
      Headloss Formula .................. Darcy-Weisbach
      Hydraulic Timestep ................ 5.00 min
      Hydraulic Accuracy ................ 0.001000
      Status Check Frequency ............ 2
      Maximum Trials Checked ............ 10
      Damping Limit Threshold ........... 0.000000
      Maximum Trials .................... 40
      Quality Analysis .................. None
      Specific Gravity .................. 1.00
      Relative Kinematic Viscosity ...... 1.51
      Relative Chemical Diffusivity ..... 1.00
      Demand Multiplier ................. 1.00
      Total Duration .................... 1440.00 min
      Reporting Criteria:
         All Nodes
         All Links
   
  Analysis begun Tue Feb 02 21:10:09 2016

  Processing MSX input file 5deg.msx
  
  
Page 1                                               EPANET-MSX 1.1
  
  ******************************************************************
  *                      E P A N E T  -  M S X                     *
  *                   Multi-Species Water Quality                  *
  *                   Analysis for Pipe  Networks                  *
  *                           Version 1.1                          *
  ******************************************************************
  
  Water Age + temp + Cl + TTHM + HAA6  

  
  <<< Node 2 >>>
  
  Time            AGE        TEMP          CL        TTHM        HAA6
  hr:min         MG/L        MG/L        MG/L        uG/L        uG/L
  -------  ----------  ----------  ----------  ----------  ----------
     0:00    0.000000   10.000000    0.000000    0.000000    0.000000
     1:00  1957.562012    5.139276    1.420503   16.986071    8.804483
     2:00  2447.358887    5.172040    1.401815   18.032902    9.167743
     3:00  2542.527588    5.178224    1.398267   18.218359    9.231396
     4:00  3295.437500    5.227405    1.370166   19.534515    9.677485
     5:00  3499.415283    5.240378    1.362716   19.853390    9.784131
     6:00  3370.913086    5.232213    1.367405   19.654100    9.717542
     7:00  2774.797119    5.193483    1.389546   18.651091    9.379139
     8:00  2415.985840    5.169973    1.402997   17.970619    9.146320
     9:00  2059.915283    5.146230    1.416545   17.219267    8.886003
    10:00  1708.162109    5.122348    1.430144   16.378603    8.590450
    11:00  1585.038574    5.113998    1.434900   16.054823    8.475347
    12:00  1578.541992    5.113562    1.435148   16.037243    8.469076
    13:00  1518.826782    5.109522    1.437448   15.873136    8.410435
    14:00  1526.723389    5.110064    1.437140   15.895105    8.418297
    15:00  1558.078735    5.112188    1.435931   15.981525    8.449187
    16:00  1503.355225    5.108460    1.438052   15.829852    8.394936
    17:00  1406.117188    5.101716    1.441886   15.550138    8.294445
    18:00  1433.812500    5.103644    1.440790   15.631199    8.323627
    19:00  1378.732910    5.099808    1.442971   15.468843    8.265132
    20:00  1427.963989    5.103237    1.441022   15.614176    8.317502
    21:00  1334.776001    5.096743    1.444713   15.335866    8.217076
    22:00  1498.952759    5.108158    1.438224   15.817476    8.390502
    23:00  1586.457031    5.114093    1.434846   16.058655    8.476713
    24:00  1692.490967    5.121282    1.430751   16.338346    8.576179
  
  <<< Node 3 >>>
  
  Time            AGE        TEMP          CL        TTHM        HAA6
  hr:min         MG/L        MG/L        MG/L        uG/L        uG/L
  -------  ----------  ----------  ----------  ----------  ----------
     0:00    0.000000   10.000000    0.000000    0.000000    0.000000
     1:00  3600.000000   10.000000    0.000000    0.000000    0.000000
     2:00  4573.003418    5.317222    1.320650   21.349094   10.277808
     3:00  5025.748047    5.346362    1.304390   21.904421   10.458306
     4:00  5862.377930    5.398913    1.275004   22.844347   10.760665
     5:00  6773.147461    5.455435    1.243635   23.766935   11.053831
     6:00  6875.698242    5.461799    1.240129   23.865355   11.084904
     7:00  5974.660645    5.406071    1.271069   22.963318   10.798671
     8:00  4986.629395    5.343885    1.305775   21.857874   10.443233
     9:00  4157.863281    5.290515    1.335634   20.804960   10.099561
    10:00  3431.943115    5.242783    1.362389   19.752840    9.750770
    11:00  3166.353027    5.225135    1.372295   19.328390    9.608443
    12:00  3149.345947    5.224004    1.372929   19.300362    9.599011
    13:00  3006.028809    5.214438    1.378300   19.059767    9.517868
    14:00  3025.574951    5.215761    1.377558   19.093063    9.529118
    15:00  3098.055420    5.220599    1.374841   19.215178    9.570319
    16:00  2969.740723    5.211986    1.379676   18.997543    9.496831
    17:00  2753.763672    5.197264    1.387941   18.615488    9.367180
    18:00  2816.078125    5.201530    1.385546   18.727858    9.405397
    19:00  2706.147705    5.194023    1.389762   18.528406    9.337513
    20:00  2802.918945    5.200629    1.386052   18.704277    9.397384
    21:00  2640.658203    5.189583    1.392256   18.406839    9.296026
    22:00  2959.901123    5.211321    1.380049   18.980579    9.491091
    23:00  3170.170898    5.225389    1.372152   19.334667    9.610556
    24:00  3406.385986    5.241103    1.363333   19.713041    9.737465
  
  <<< Node 4 >>>
  
  Time            AGE        TEMP          CL        TTHM        HAA6
  hr:min         MG/L        MG/L        MG/L        uG/L        uG/L
  -------  ----------  ----------  ----------  ----------  ----------
     0:00    0.000000   10.000000    0.000000    0.000000    0.000000
     1:00  3600.000000   10.000000    0.000000    0.000000    0.000000
     2:00  6527.150879    5.447439    1.249265   23.531054   10.979454
     3:00  7372.401367    5.500104    1.220461   24.333069   11.232326
     4:00  8345.190430    5.559294    1.188142   25.181095   11.497017
     5:00  9396.677734    5.622212    1.154068   26.024958   11.757820
     6:00  10146.310547    5.666617    1.130273   26.588314   11.930566
     7:00  9423.715820    5.623977    1.153195   26.045898   11.764267
     8:00  7893.667480    5.532116    1.203007   24.796515   11.377316
     9:00  6534.410645    5.448043    1.248975   23.538330   10.981765
    10:00  5434.698242    5.378175    1.287414   22.379984   10.611970
    11:00  4842.024902    5.339878    1.308576   21.686466   10.387808
    12:00  4714.746582    5.331567    1.313175   21.529848   10.336885
    13:00  4514.371582    5.318424    1.320451   21.277151   10.254483
    14:00  4485.995605    5.316560    1.321483   21.240734   10.242583
    15:00  4588.514160    5.323300    1.317750   21.371559   10.285303
    16:00  4447.374512    5.313996    1.322903   21.190893   10.226287
    17:00  4187.904785    5.296816    1.332426   20.847948   10.113835
    18:00  4214.146484    5.298569    1.331454   20.883307   10.125456
    19:00  4105.701660    5.291358    1.335456   20.736187   10.077066
    20:00  4191.780762    5.297081    1.332279   20.853184   10.115557
    21:00  4017.801270    5.285530    1.338689   20.614931   10.037107
    22:00  4321.536133    5.305679    1.327508   21.026382   10.172414
    23:00  4648.635254    5.327195    1.315591   21.447298   10.309998
    24:00  4992.266602    5.349616    1.303188   21.867647   10.446577
  
  <<< Node 5 >>>
  
  Time            AGE        TEMP          CL        TTHM        HAA6
  hr:min         MG/L        MG/L        MG/L        uG/L        uG/L
  -------  ----------  ----------  ----------  ----------  ----------
     0:00    0.000000   10.000000    0.000000    0.000000    0.000000
     1:00  3600.000000   10.000000    0.000000    0.000000    0.000000
     2:00  7200.000000   10.000000    0.000000    0.000000    0.000000
     3:00  9315.864258    5.624563    1.154022   25.967264   11.740331
     4:00  10728.585938    5.708169    1.109440   27.012024   12.060068
     5:00  11872.864258    5.774398    1.074459   27.792221   12.296510
     6:00  12823.262695    5.828683    1.046129   28.403002   12.480290
     7:00  12764.513672    5.825417    1.047890   28.366184   12.469247
     8:00  11272.539063    5.740036    1.092667   27.389677   12.174768
     9:00  9198.088867    5.617535    1.157820   25.875469   11.712061
    10:00  7522.134277    5.514985    1.213062   24.472027   11.276084
    11:00  6545.639648    5.453610    1.246395   23.552406   10.986392
    12:00  6262.330566    5.435518    1.256254   23.267958   10.896107
    13:00  6079.037109    5.423831    1.262634   23.079189   10.836011
    14:00  5981.489258    5.417590    1.266043   22.977114   10.803452
    15:00  6079.800293    5.423887    1.262601   23.079988   10.836266
    16:00  5988.224609    5.417989    1.265825   22.984179   10.805707
    17:00  5649.907715    5.396060    1.277814   22.621115   10.689553
    18:00  5600.678711    5.392893    1.279548   22.567057   10.672213
    19:00  5495.139160    5.385972    1.283339   22.449968   10.634604
    20:00  5551.632813    5.389686    1.281304   22.512840   10.654806
    21:00  5394.988770    5.379447    1.286914   22.337435   10.598407
    22:00  5675.387207    5.397792    1.276861   22.649021   10.698503
    23:00  6101.497070    5.425203    1.261876   23.102493   10.843436
    24:00  6565.278809    5.454841    1.245720   23.571795   10.992534
  
  <<< Node 6 >>>
  
  Time            AGE        TEMP          CL        TTHM        HAA6
  hr:min         MG/L        MG/L        MG/L        uG/L        uG/L
  -------  ----------  ----------  ----------  ----------  ----------
     0:00    0.000000   10.000000    0.000000    0.000000    0.000000
     1:00  3600.000000   10.000000    0.000000    0.000000    0.000000
     2:00  7200.000000   10.000000    0.000000    0.000000    0.000000
     3:00  10800.000000   10.000000    0.000000    0.000000    0.000000
     4:00  12690.465820    5.827940    1.047628   28.324503   12.456993
     5:00  14263.489258    5.916483    1.002027   29.279127   12.742234
     6:00  15296.645508    5.973510    0.973038   29.868874   12.917136
     7:00  15652.032227    5.993015    0.963266   30.065748   12.975310
     8:00  14743.660156    5.943288    0.988490   29.556740   12.824697
     9:00  12226.398438    5.801591    1.061439   28.028122   12.367888
    10:00  9891.223633    5.664542    1.133426   26.408762   11.876102
    11:00  8461.129883    5.577648    1.179705   25.285028   11.529684
    12:00  7900.087891    5.542860    1.198358   24.808756   11.381504
    13:00  7652.291504    5.527413    1.206663   24.591043   11.313491
    14:00  7483.334961    5.516817    1.212366   24.439800   11.266138
    15:00  7572.450684    5.522400    1.209356   24.519855   11.291213
    16:00  7508.288574    5.518336    1.211547   24.462254   11.273171
    17:00  7101.680176    5.492537    1.225452   24.089188   11.156019
    18:00  6981.638672    5.484961    1.229544   23.976297   11.120466
    19:00  6906.463867    5.480135    1.232153   23.904877   11.097945
    20:00  6917.838867    5.480892    1.231743   23.915733   11.101371
    21:00  6813.158203    5.474205    1.235359   23.815523   11.069743
    22:00  7000.960449    5.486234    1.228849   23.994591   11.126233
    23:00  7535.162598    5.519972    1.210653   24.486378   11.280726
    24:00  8047.541016    5.551966    1.193456   24.936064   11.421191
  
  <<< Node 7 >>>
  
  Time            AGE        TEMP          CL        TTHM        HAA6
  hr:min         MG/L        MG/L        MG/L        uG/L        uG/L
  -------  ----------  ----------  ----------  ----------  ----------
     0:00    0.000000   10.000000    0.000000    0.000000    0.000000
     1:00  3600.000000   10.000000    0.000000    0.000000    0.000000
     2:00  7200.000000   10.000000    0.000000    0.000000    0.000000
     3:00  10800.000000   10.000000    0.000000    0.000000    0.000000
     4:00  14397.611328    9.945846    0.011843   32.588139   13.878326
     5:00  16224.701172    6.030372    0.945427   30.381777   13.068712
     6:00  17719.378906    6.110684    0.905689   31.161791   13.297502
     7:00  18178.906250    6.135002    0.893827   31.392944   13.364993
     8:00  17960.572266    6.123517    0.899515   31.283634   13.333097
     9:00  15624.531250    5.997973    0.961853   30.055662   12.972586
    10:00  12524.743164    5.824274    1.050408   28.223696   12.426934
    11:00  10478.903320    5.704378    1.112860   26.841980   12.008678
    12:00  9616.005859    5.652414    1.140229   26.204502   11.813622
    13:00  9217.483398    5.628122    1.153079   25.896978   11.719031
    14:00  9027.271484    5.616433    1.159273   25.746996   11.672779
    15:00  9035.403320    5.616909    1.159014   25.753435   11.674766
    16:00  8982.485352    5.613632    1.160756   25.711342   11.661772
    17:00  8636.112305    5.592167    1.172158   25.431623   11.575263
    18:00  8445.032227    5.580350    1.178450   25.274094   11.526423
    19:00  8293.747070    5.570855    1.183510   25.147568   11.487129
    20:00  8318.095703    5.572416    1.182677   25.168056   11.493497
    21:00  8170.563965    5.563141    1.187624   25.043404   11.454736
    22:00  8410.698242    5.578278    1.179546   25.245567   11.517572
    23:00  8860.349609    5.606040    1.164765   25.613533   11.631552
    24:00  9518.737305    5.646421    1.143373   26.130198   11.790793
  
  <<< Node 8 >>>
  
  Time            AGE        TEMP          CL        TTHM        HAA6
  hr:min         MG/L        MG/L        MG/L        uG/L        uG/L
  -------  ----------  ----------  ----------  ----------  ----------
     0:00    0.000000   10.000000    0.000000    0.000000    0.000000
     1:00  3600.000000   10.000000    0.000000    0.000000    0.000000
     2:00  7200.000000   10.000000    0.000000    0.000000    0.000000
     3:00  10800.000000   10.000000    0.000000    0.000000    0.000000
     4:00  14400.000000   10.000000    0.000000    0.000000    0.000000
     5:00  17993.595703    9.861993    0.027748   34.488686   14.415030
     6:00  19688.279297    6.219512    0.853670   32.131413   13.579927
     7:00  20579.158203    6.265473    0.831847   32.547829   13.700405
     8:00  20521.445313    6.262632    0.833277   32.521309   13.692750
     9:00  19040.746094    6.186092    0.869977   31.821360   13.489957
    10:00  15502.576172    5.996917    0.963174   29.992727   12.954220
    11:00  12807.209961    5.845313    1.040082   28.405870   12.481821
    12:00  11437.727539    5.765520    1.081270   27.513268   12.212802
    13:00  10781.450195    5.726474    1.101573   27.059954   12.075217
    14:00  10584.393555    5.714660    1.107734   26.920238   12.032680
    15:00  10525.396484    5.711116    1.109579   26.878069   12.019828
    16:00  10476.306641    5.708132    1.111141   26.842838   12.009086
    17:00  10163.826172    5.689160    1.121068   26.615995   11.939821
    18:00  9899.676758    5.673147    1.129465   26.420620   11.880033
    19:00  9675.609375    5.659424    1.136673   26.252062   11.828345
    20:00  9717.798828    5.662038    1.135299   26.284018   11.838153
    21:00  9544.404297    5.651402    1.140894   26.152161   11.797668
    22:00  9797.238281    5.666957    1.132708   26.343933   11.856532
    23:00  10207.115234    5.691813    1.119652   26.647711   11.949516
    24:00  10953.126953    5.736617    1.096256   27.180202   12.111773
  
  <<< Node 9 >>>
  
  Time            AGE        TEMP          CL        TTHM        HAA6
  hr:min         MG/L        MG/L        MG/L        uG/L        uG/L
  -------  ----------  ----------  ----------  ----------  ----------
     0:00    0.000000   10.000000    0.000000    0.000000    0.000000
     1:00  3600.000000   10.000000    0.000000    0.000000    0.000000
     2:00  7200.000000   10.000000    0.000000    0.000000    0.000000
     3:00  10800.000000   10.000000    0.000000    0.000000    0.000000
     4:00  14400.000000   10.000000    0.000000    0.000000    0.000000
     5:00  18000.000000   10.000000    0.000000    0.000000    0.000000
     6:00  21561.890625    9.225929    0.152110   35.583412   14.691288
     7:00  22715.285156    6.378385    0.779699   33.505657   13.976133
     8:00  22994.515625    6.392432    0.773335   33.626163   14.010651
     9:00  22130.896484    6.349280    0.793338   33.250774   13.903032
    10:00  18889.894531    6.183616    0.871938   31.752567   13.470178
    11:00  15324.282227    5.992003    0.966206   29.897461   12.926254
    12:00  13453.413086    5.886740    1.019300   28.808388   12.602512
    13:00  12485.652344    5.830824    1.047834   28.205210   12.421713
    14:00  12162.267578    5.811928    1.057526   27.996746   12.358971
    15:00  12079.112305    5.807042    1.060030   27.942539   12.342634
    16:00  11956.816406    5.799791    1.063759   27.862328   12.318440
    17:00  11656.576172    5.781927    1.072961   27.663061   12.258253
    18:00  11396.138672    5.766522    1.080918   27.487537   12.205140
    19:00  11084.160156    5.747838    1.090588   27.273613   12.140270
    20:00  11126.815430    5.750432    1.089244   27.303122   12.149228
    21:00  10904.882813    5.737059    1.096178   27.148857   12.102372
    22:00  11203.634766    5.755112    1.086812   27.356083   12.165299
    23:00  11563.167969    5.776401    1.075783   27.600405   12.239305
    24:00  12285.994141    5.818991    1.053851   28.076803   12.383075
  
  <<< Node 10 >>>
  
  Time            AGE        TEMP          CL        TTHM        HAA6
  hr:min         MG/L        MG/L        MG/L        uG/L        uG/L
  -------  ----------  ----------  ----------  ----------  ----------
     0:00    0.000000   10.000000    0.000000    0.000000    0.000000
     1:00  3600.000000   10.000000    0.000000    0.000000    0.000000
     2:00  7200.000000   10.000000    0.000000    0.000000    0.000000
     3:00  10800.000000   10.000000    0.000000    0.000000    0.000000
     4:00  14400.000000   10.000000    0.000000    0.000000    0.000000
     5:00  18000.000000   10.000000    0.000000    0.000000    0.000000
     6:00  21600.000000   10.000000    0.000000    0.000000    0.000000
     7:00  24662.554688    6.479973    0.734248   34.331558   14.212226
     8:00  25346.160156    6.511855    0.719829   34.608894   14.291027
     9:00  24669.642578    6.479218    0.734526   34.333492   14.212729
    10:00  22327.681641    6.364065    0.787161   33.341366   13.929236
    11:00  18143.828125    6.149446    0.889129   31.388708   13.364410
    12:00  15682.230469    6.016254    0.954548   30.099205   12.986033
    13:00  14203.121094    5.933384    0.995978   29.259195   12.737091
    14:00  13727.955078    5.906259    1.009646   28.977118   12.653043
    15:00  13628.941406    5.900559    1.012519   28.917515   12.635253
    16:00  13427.732422    5.888924    1.018404   28.795492   12.598799
    17:00  13149.721680    5.872760    1.026601   28.624870   12.547751
    18:00  12927.333984    5.859888    1.033146   28.486742   12.506368
    19:00  12540.827148    5.837244    1.044681   28.242767   12.433125
    20:00  12500.793945    5.834929    1.045860   28.217241   12.425452
    21:00  12315.677734    5.824028    1.051432   28.098370   12.389692
    22:00  12552.429688    5.838028    1.044271   28.250238   12.435373
    23:00  12980.279297    5.862953    1.031555   28.519768   12.516267
    24:00  13612.521484    5.899391    1.013055   28.907436   12.632236
  
  <<< Node 11 >>>
  
  Time            AGE        TEMP          CL        TTHM        HAA6
  hr:min         MG/L        MG/L        MG/L        uG/L        uG/L
  -------  ----------  ----------  ----------  ----------  ----------
     0:00    0.000000   10.000000    0.000000    0.000000    0.000000
     1:00  3600.000000   10.000000    0.000000    0.000000    0.000000
     2:00  7200.000000   10.000000    0.000000    0.000000    0.000000
     3:00  10800.000000   10.000000    0.000000    0.000000    0.000000
     4:00  14400.000000   10.000000    0.000000    0.000000    0.000000
     5:00  18000.000000   10.000000    0.000000    0.000000    0.000000
     6:00  21600.000000   10.000000    0.000000    0.000000    0.000000
     7:00  25200.000000   10.000000    0.000000    0.000000    0.000000
     8:00  27294.371094    6.608561    0.677746   35.380871   14.509784
     9:00  27097.113281    6.599337    0.681863   35.304729   14.488284
    10:00  25483.474609    6.522744    0.715628   34.668095   14.308015
    11:00  21483.736328    6.326686    0.805198   32.971920   13.823287
    12:00  18088.234375    6.151060    0.888830   31.364603   13.357560
    13:00  16192.138672    6.048355    0.938976   30.379847   13.068923
    14:00  15379.353516    6.003268    0.961262   29.934540   12.937539
    15:00  15184.461914    5.992315    0.966691   29.825443   12.905265
    16:00  14946.393555    5.978902    0.973363   29.690933   12.865429
    17:00  14634.414063    5.961139    0.982222   29.512436   12.812482
    18:00  14443.761719    5.950333    0.987628   29.402195   12.779740
    19:00  14009.516602    5.925483    1.000084   29.147390   12.703926
    20:00  13896.923828    5.919066    1.003307   29.080519   12.684000
    21:00  13720.118164    5.908834    1.008458   28.974686   12.652433
    22:00  13931.783203    5.921148    1.002252   29.101332   12.690207
    23:00  14363.372070    5.945721    0.989902   29.355389   12.765826
    24:00  14978.915039    5.980533    0.972490   29.709232   12.870843
  
  <<< Node 1 >>>
  
  Time            AGE        TEMP          CL        TTHM        HAA6
  hr:min         MG/L        MG/L        MG/L        uG/L        uG/L
  -------  ----------  ----------  ----------  ----------  ----------
     0:00    0.000000   10.000000    0.000000    0.000000    0.000000
     1:00    0.000000    5.000000    1.500000    0.000000    0.000000
     2:00    0.000000    5.000000    1.500000    0.000000    0.000000
     3:00    0.000000    5.000000    1.500000    0.000000    0.000000
     4:00    0.000000    5.000000    1.500000    0.000000    0.000000
     5:00    0.000000    5.000000    1.500000    0.000000    0.000000
     6:00    0.000000    5.000000    1.500000    0.000000    0.000000
     7:00    0.000000    5.000000    1.500000    0.000000    0.000000
     8:00    0.000000    5.000000    1.500000    0.000000    0.000000
     9:00    0.000000    5.000000    1.500000    0.000000    0.000000
    10:00    0.000000    5.000000    1.500000    0.000000    0.000000
    11:00    0.000000    5.000000    1.500000    0.000000    0.000000
    12:00    0.000000    5.000000    1.500000    0.000000    0.000000
    13:00    0.000000    5.000000    1.500000    0.000000    0.000000
    14:00    0.000000    5.000000    1.500000    0.000000    0.000000
    15:00    0.000000    5.000000    1.500000    0.000000    0.000000
    16:00    0.000000    5.000000    1.500000    0.000000    0.000000
    17:00    0.000000    5.000000    1.500000    0.000000    0.000000
    18:00    0.000000    5.000000    1.500000    0.000000    0.000000
    19:00    0.000000    5.000000    1.500000    0.000000    0.000000
    20:00    0.000000    5.000000    1.500000    0.000000    0.000000
    21:00    0.000000    5.000000    1.500000    0.000000    0.000000
    22:00    0.000000    5.000000    1.500000    0.000000    0.000000
    23:00    0.000000    5.000000    1.500000    0.000000    0.000000
    24:00    0.000000    5.000000    1.500000    0.000000    0.000000
  
  Analysis ended Tue Feb 02 21:10:10 2016
