  Page 1                                    Wed Nov 18 09:45:24 2015

  ******************************************************************
  *                           E P A N E T                          *
  *                   Hydraulic and Water Quality                  *
  *                   Analysis for Pipe Networks                   *
  *                         Version 2.00.12                        *
  ******************************************************************
  
   
      Input Data File ................... 5deg.inp
      Number of Junctions................ 10
      Number of Reservoirs............... 1
      Number of Tanks ................... 0
      Number of Pipes ................... 10
      Number of Pumps ................... 0
      Number of Valves .................. 0
      Headloss Formula .................. Darcy-Weisbach
      Hydraulic Timestep ................ 5.00 min
      Hydraulic Accuracy ................ 0.001000
      Status Check Frequency ............ 2
      Maximum Trials Checked ............ 10
      Damping Limit Threshold ........... 0.000000
      Maximum Trials .................... 40
      Quality Analysis .................. None
      Specific Gravity .................. 1.00
      Relative Kinematic Viscosity ...... 1.51
      Relative Chemical Diffusivity ..... 1.00
      Demand Multiplier ................. 1.00
      Total Duration .................... 1440.00 min
      Reporting Criteria:
         All Nodes
         All Links
   
  Analysis begun Wed Nov 18 09:45:24 2015

  Processing MSX input file 5deg.msx
  
  
Page 1                                               EPANET-MSX 1.1
  
  ******************************************************************
  *                      E P A N E T  -  M S X                     *
  *                   Multi-Species Water Quality                  *
  *                   Analysis for Pipe  Networks                  *
  *                           Version 1.1                          *
  ******************************************************************
  
  Water Age + temp + Cl + TTHM + HAA6  

  
  <<< Node 2 >>>
  
  Time            AGE        TEMP          CL        TTHM        HAA6
  hr:min         MG/L        MG/L        MG/L        uG/L        uG/L
  -------  ----------  ----------  ----------  ----------  ----------
     0:00    0.000000   10.000000    0.000000    0.000000    0.000000
     1:00  1957.562012    5.139276    0.963139    0.679916    0.734296
     2:00  2447.358887    5.172040    0.954071    0.680495    0.734796
     3:00  2542.527588    5.178224    0.952317    0.680604    0.734890
     4:00  3295.437500    5.227405    0.938521    0.681473    0.735642
     5:00  3499.415283    5.240378    0.934810    0.681703    0.735840
     6:00  3370.913086    5.232213    0.937146    0.681558    0.735715
     7:00  2774.797119    5.193483    0.948045    0.680874    0.735123
     8:00  2415.985840    5.169973    0.954650    0.680458    0.734764
     9:00  2059.915283    5.146230    0.961238    0.680039    0.734402
    10:00  1708.162109    5.122348    0.967780    0.679617    0.734037
    11:00  1585.038574    5.113998    0.970076    0.679470    0.733910
    12:00  1578.541992    5.113562    0.970197    0.679462    0.733903
    13:00  1518.826782    5.109522    0.971313    0.679391    0.733842
    14:00  1526.723389    5.110064    0.971165    0.679401    0.733850
    15:00  1558.078735    5.112188    0.970580    0.679438    0.733882
    16:00  1503.355225    5.108460    0.971602    0.679372    0.733826
    17:00  1406.117188    5.101716    0.973422    0.679253    0.733723
    18:00  1433.812500    5.103644    0.972904    0.679287    0.733752
    19:00  1378.732910    5.099808    0.973935    0.679220    0.733694
    20:00  1427.963989    5.103237    0.973013    0.679280    0.733746
    21:00  1334.776001    5.096743    0.974758    0.679166    0.733647
    22:00  1498.952759    5.108158    0.971684    0.679367    0.733821
    23:00  1586.457031    5.114093    0.970050    0.679472    0.733911
    24:00  1692.490967    5.121282    0.968072    0.679599    0.734021
  
  <<< Node 3 >>>
  
  Time            AGE        TEMP          CL        TTHM        HAA6
  hr:min         MG/L        MG/L        MG/L        uG/L        uG/L
  -------  ----------  ----------  ----------  ----------  ----------
     0:00    0.000000   10.000000    0.000000    0.000000    0.000000
     1:00  3600.000000   10.000000    0.000000    0.000000    0.000000
     2:00  4573.003418    5.317222    0.915425    0.683064    0.737016
     3:00  5025.748047    5.346362    0.907349    0.683581    0.737463
     4:00  5862.377930    5.398913    0.892562    0.684514    0.738269
     5:00  6773.147461    5.455435    0.876678    0.685519    0.739136
     6:00  6875.698242    5.461799    0.874905    0.685633    0.739234
     7:00  5974.660645    5.406071    0.890599    0.684642    0.738378
     8:00  4986.629395    5.343885    0.908047    0.683537    0.737425
     9:00  4157.863281    5.290515    0.922880    0.682591    0.736607
    10:00  3431.943115    5.242783    0.936020    0.681746    0.735877
    11:00  3166.353027    5.225135    0.940862    0.681433    0.735607
    12:00  3149.345947    5.224004    0.941173    0.681413    0.735590
    13:00  3006.028809    5.214438    0.943794    0.681244    0.735444
    14:00  3025.574951    5.215761    0.943436    0.681267    0.735464
    15:00  3098.055420    5.220599    0.942110    0.681353    0.735538
    16:00  2969.740723    5.211986    0.944458    0.681201    0.735406
    17:00  2753.763672    5.197264    0.948422    0.680940    0.735181
    18:00  2816.078125    5.201530    0.947277    0.681016    0.735246
    19:00  2706.147705    5.194023    0.949297    0.680883    0.735132
    20:00  2802.918945    5.200629    0.947519    0.681000    0.735232
    21:00  2640.658203    5.189583    0.950501    0.680805    0.735064
    22:00  2959.901123    5.211321    0.944639    0.681189    0.735396
    23:00  3170.170898    5.225389    0.940793    0.681438    0.735611
    24:00  3406.385986    5.241103    0.936485    0.681716    0.735851
  
  <<< Node 4 >>>
  
  Time            AGE        TEMP          CL        TTHM        HAA6
  hr:min         MG/L        MG/L        MG/L        uG/L        uG/L
  -------  ----------  ----------  ----------  ----------  ----------
     0:00    0.000000   10.000000    0.000000    0.000000    0.000000
     1:00  3600.000000   10.000000    0.000000    0.000000    0.000000
     2:00  6527.150879    5.447439    0.880912    0.685377    0.739013
     3:00  7372.401367    5.500104    0.866302    0.686315    0.739823
     4:00  8345.190430    5.559294    0.849708    0.687370    0.740733
     5:00  9396.677734    5.622212    0.832053    0.688494    0.741703
     6:00  10146.310547    5.666617    0.819649    0.689288    0.742387
     7:00  9423.715820    5.623977    0.831622    0.688525    0.741730
     8:00  7893.667480    5.532116    0.857392    0.686885    0.740315
     9:00  6534.410645    5.448043    0.880793    0.685388    0.739023
    10:00  5434.698242    5.378175    0.900081    0.684146    0.737950
    11:00  4842.024902    5.339878    0.910603    0.683466    0.737363
    12:00  4714.746582    5.331567    0.912875    0.683319    0.737236
    13:00  4514.371582    5.318424    0.916461    0.683086    0.737035
    14:00  4485.995605    5.316560    0.916969    0.683052    0.737006
    15:00  4588.514160    5.323300    0.915132    0.683172    0.737109
    16:00  4447.374512    5.313996    0.917662    0.683007    0.736967
    17:00  4187.904785    5.296816    0.922326    0.682702    0.736704
    18:00  4214.146484    5.298569    0.921853    0.682734    0.736731
    19:00  4105.701660    5.291358    0.923807    0.682606    0.736620
    20:00  4191.780762    5.297081    0.922256    0.682707    0.736708
    21:00  4017.801270    5.285530    0.925393    0.682502    0.736531
    22:00  4321.536133    5.305679    0.919920    0.682860    0.736839
    23:00  4648.635254    5.327195    0.914056    0.683241    0.737169
    24:00  4992.266602    5.349616    0.907925    0.683639    0.737513
  
  <<< Node 5 >>>
  
  Time            AGE        TEMP          CL        TTHM        HAA6
  hr:min         MG/L        MG/L        MG/L        uG/L        uG/L
  -------  ----------  ----------  ----------  ----------  ----------
     0:00    0.000000   10.000000    0.000000    0.000000    0.000000
     1:00  3600.000000   10.000000    0.000000    0.000000    0.000000
     2:00  7200.000000   10.000000    0.000000    0.000000    0.000000
     3:00  9315.864258    5.624563    0.833358    0.688536    0.741739
     4:00  10728.585938    5.708169    0.810040    0.690032    0.743029
     5:00  11872.864258    5.774398    0.791527    0.691219    0.744052
     6:00  12823.262695    5.828683    0.776414    0.692194    0.744892
     7:00  12764.513672    5.825417    0.777366    0.692135    0.744842
     8:00  11272.539063    5.740036    0.801232    0.690603    0.743521
     9:00  9198.088867    5.617535    0.835344    0.688410    0.741630
    10:00  7522.134277    5.514985    0.863713    0.686580    0.740052
    11:00  6545.639648    5.453610    0.880574    0.685487    0.739108
    12:00  6262.330566    5.435518    0.885513    0.685165    0.738830
    13:00  6079.037109    5.423831    0.888720    0.684957    0.738651
    14:00  5981.489258    5.417590    0.890429    0.684846    0.738555
    15:00  6079.800293    5.423887    0.888704    0.684958    0.738652
    16:00  5988.224609    5.417989    0.890312    0.684853    0.738561
    17:00  5649.907715    5.396060    0.896263    0.684464    0.738225
    18:00  5600.678711    5.392893    0.897131    0.684407    0.738176
    19:00  5495.139160    5.385972    0.898996    0.684284    0.738070
    20:00  5551.632813    5.389686    0.897997    0.684350    0.738127
    21:00  5394.988770    5.379447    0.900766    0.684169    0.737970
    22:00  5675.387207    5.397792    0.895811    0.684494    0.738251
    23:00  6101.497070    5.425203    0.888324    0.684982    0.738672
    24:00  6565.278809    5.454841    0.880230    0.685509    0.739127
  
  <<< Node 6 >>>
  
  Time            AGE        TEMP          CL        TTHM        HAA6
  hr:min         MG/L        MG/L        MG/L        uG/L        uG/L
  -------  ----------  ----------  ----------  ----------  ----------
     0:00    0.000000   10.000000    0.000000    0.000000    0.000000
     1:00  3600.000000   10.000000    0.000000    0.000000    0.000000
     2:00  7200.000000   10.000000    0.000000    0.000000    0.000000
     3:00  10800.000000   10.000000    0.000000    0.000000    0.000000
     4:00  12690.465820    5.827940    0.778445    0.692181    0.744881
     5:00  14263.489258    5.916483    0.753853    0.693774    0.746253
     6:00  15296.645508    5.973510    0.738044    0.694802    0.747137
     7:00  15652.032227    5.993015    0.732693    0.695153    0.747440
     8:00  14743.660156    5.943288    0.746527    0.694257    0.746668
     9:00  12226.398438    5.801591    0.785866    0.691707    0.744473
    10:00  9891.223633    5.664542    0.823787    0.689251    0.742355
    11:00  8461.129883    5.577648    0.847699    0.687698    0.741016
    12:00  7900.087891    5.542860    0.857221    0.687077    0.740480
    13:00  7652.291504    5.527413    0.861456    0.686802    0.740243
    14:00  7483.334961    5.516817    0.864350    0.686613    0.740080
    15:00  7572.450684    5.522400    0.862820    0.686712    0.740166
    16:00  7508.288574    5.518336    0.863923    0.686640    0.740103
    17:00  7101.680176    5.492537    0.870921    0.686180    0.739706
    18:00  6981.638672    5.484961    0.872993    0.686045    0.739590
    19:00  6906.463867    5.480135    0.874295    0.685959    0.739516
    20:00  6917.838867    5.480892    0.874097    0.685973    0.739527
    21:00  6813.158203    5.474205    0.875911    0.685854    0.739425
    22:00  7000.960449    5.486234    0.872656    0.686068    0.739610
    23:00  7535.162598    5.519972    0.863458    0.686669    0.740128
    24:00  8047.541016    5.551966    0.854706    0.687239    0.740621
  
  <<< Node 7 >>>
  
  Time            AGE        TEMP          CL        TTHM        HAA6
  hr:min         MG/L        MG/L        MG/L        uG/L        uG/L
  -------  ----------  ----------  ----------  ----------  ----------
     0:00    0.000000   10.000000    0.000000    0.000000    0.000000
     1:00  3600.000000   10.000000    0.000000    0.000000    0.000000
     2:00  7200.000000   10.000000    0.000000    0.000000    0.000000
     3:00  10800.000000   10.000000    0.000000    0.000000    0.000000
     4:00  14397.611328    9.945846    0.009156    0.770276    0.811435
     5:00  16224.701172    6.030372    0.723983    0.695828    0.748021
     6:00  17719.378906    6.110684    0.701912    0.697280    0.749270
     7:00  18178.906250    6.135002    0.695261    0.697720    0.749649
     8:00  17960.572266    6.123517    0.698468    0.697512    0.749470
     9:00  15624.531250    5.997973    0.733088    0.695243    0.747517
    10:00  12524.743164    5.824274    0.781077    0.692115    0.744824
    11:00  10478.903320    5.704378    0.814074    0.689964    0.742970
    12:00  9616.005859    5.652414    0.828310    0.689034    0.742168
    13:00  9217.483398    5.628122    0.834953    0.688600    0.741794
    14:00  9027.271484    5.616433    0.838137    0.688391    0.741614
    15:00  9035.403320    5.616909    0.837998    0.688399    0.741621
    16:00  8982.485352    5.613632    0.838888    0.688341    0.741570
    17:00  8636.112305    5.592167    0.844718    0.687957    0.741240
    18:00  8445.032227    5.580350    0.847945    0.687746    0.741058
    19:00  8293.747070    5.570855    0.850508    0.687577    0.740911
    20:00  8318.095703    5.572416    0.850095    0.687604    0.740935
    21:00  8170.563965    5.563141    0.852599    0.687439    0.740793
    22:00  8410.698242    5.578278    0.848522    0.687709    0.741026
    23:00  8860.349609    5.606040    0.840934    0.688205    0.741453
    24:00  9518.737305    5.646421    0.829921    0.688927    0.742076
  
  <<< Node 8 >>>
  
  Time            AGE        TEMP          CL        TTHM        HAA6
  hr:min         MG/L        MG/L        MG/L        uG/L        uG/L
  -------  ----------  ----------  ----------  ----------  ----------
     0:00    0.000000   10.000000    0.000000    0.000000    0.000000
     1:00  3600.000000   10.000000    0.000000    0.000000    0.000000
     2:00  7200.000000   10.000000    0.000000    0.000000    0.000000
     3:00  10800.000000   10.000000    0.000000    0.000000    0.000000
     4:00  14400.000000   10.000000    0.000000    0.000000    0.000000
     5:00  17993.595703    9.861993    0.022272    0.768601    0.810022
     6:00  19688.279297    6.219512    0.673573    0.699253    0.750967
     7:00  20579.158203    6.265473    0.661120    0.700088    0.751685
     8:00  20521.445313    6.262632    0.661963    0.700036    0.751640
     9:00  19040.746094    6.186092    0.682877    0.698646    0.750446
    10:00  15502.576172    5.996917    0.734881    0.695224    0.747501
    11:00  12807.209961    5.845313    0.776559    0.692493    0.745150
    12:00  11437.727539    5.765520    0.798434    0.691060    0.743915
    13:00  10781.450195    5.726474    0.809088    0.690360    0.743311
    14:00  10584.393555    5.714660    0.812308    0.690148    0.743129
    15:00  10525.396484    5.711116    0.813271    0.690085    0.743074
    16:00  10476.306641    5.708132    0.814079    0.690031    0.743028
    17:00  10163.826172    5.689160    0.819222    0.689691    0.742735
    18:00  9899.676758    5.673147    0.823583    0.689405    0.742488
    19:00  9675.609375    5.659424    0.827297    0.689159    0.742276
    20:00  9717.798828    5.662038    0.826596    0.689206    0.742317
    21:00  9544.404297    5.651402    0.829478    0.689016    0.742153
    22:00  9797.238281    5.666957    0.825275    0.689294    0.742393
    23:00  10207.115234    5.691813    0.818497    0.689739    0.742776
    24:00  10953.126953    5.736617    0.806280    0.690542    0.743468
  
  <<< Node 9 >>>
  
  Time            AGE        TEMP          CL        TTHM        HAA6
  hr:min         MG/L        MG/L        MG/L        uG/L        uG/L
  -------  ----------  ----------  ----------  ----------  ----------
     0:00    0.000000   10.000000    0.000000    0.000000    0.000000
     1:00  3600.000000   10.000000    0.000000    0.000000    0.000000
     2:00  7200.000000   10.000000    0.000000    0.000000    0.000000
     3:00  10800.000000   10.000000    0.000000    0.000000    0.000000
     4:00  14400.000000   10.000000    0.000000    0.000000    0.000000
     5:00  18000.000000   10.000000    0.000000    0.000000    0.000000
     6:00  21561.890625    9.225929    0.125023    0.756014    0.799385
     7:00  22715.285156    6.378385    0.631867    0.702143    0.753451
     8:00  22994.515625    6.392432    0.628176    0.702399    0.753671
     9:00  22130.896484    6.349280    0.639843    0.701612    0.752995
    10:00  18889.894531    6.183616    0.684988    0.698602    0.750407
    11:00  15324.282227    5.992003    0.737528    0.695135    0.747425
    12:00  13453.413086    5.886740    0.766349    0.693238    0.745791
    13:00  12485.652344    5.830824    0.781607    0.692233    0.744925
    14:00  12162.267578    5.811928    0.786757    0.691893    0.744633
    15:00  12079.112305    5.807042    0.788083    0.691805    0.744557
    16:00  11956.816406    5.799791    0.790044    0.691675    0.744445
    17:00  11656.576172    5.781927    0.794874    0.691354    0.744169
    18:00  11396.138672    5.766522    0.799076    0.691078    0.743930
    19:00  11084.160156    5.747838    0.804134    0.690743    0.743642
    20:00  11126.815430    5.750432    0.803439    0.690789    0.743682
    21:00  10904.882813    5.737059    0.807051    0.690550    0.743475
    22:00  11203.634766    5.755112    0.802188    0.690873    0.743754
    23:00  11563.167969    5.776401    0.796367    0.691255    0.744083
    24:00  12285.994141    5.818991    0.784771    0.692020    0.744742
  
  <<< Node 10 >>>
  
  Time            AGE        TEMP          CL        TTHM        HAA6
  hr:min         MG/L        MG/L        MG/L        uG/L        uG/L
  -------  ----------  ----------  ----------  ----------  ----------
     0:00    0.000000   10.000000    0.000000    0.000000    0.000000
     1:00  3600.000000   10.000000    0.000000    0.000000    0.000000
     2:00  7200.000000   10.000000    0.000000    0.000000    0.000000
     3:00  10800.000000   10.000000    0.000000    0.000000    0.000000
     4:00  14400.000000   10.000000    0.000000    0.000000    0.000000
     5:00  18000.000000   10.000000    0.000000    0.000000    0.000000
     6:00  21600.000000   10.000000    0.000000    0.000000    0.000000
     7:00  24662.554688    6.479973    0.605873    0.703997    0.755043
     8:00  25346.160156    6.511855    0.597354    0.704580    0.755544
     9:00  24669.642578    6.479218    0.606128    0.703983    0.755031
    10:00  22327.681641    6.364065    0.637157    0.701882    0.753226
    11:00  18143.828125    6.149446    0.695664    0.697982    0.749874
    12:00  15682.230469    6.016254    0.732055    0.695573    0.747801
    13:00  14203.121094    5.933384    0.754643    0.694078    0.746515
    14:00  13727.955078    5.906259    0.762017    0.693590    0.746094
    15:00  13628.941406    5.900559    0.763558    0.693487    0.746006
    16:00  13427.732422    5.888924    0.766705    0.693277    0.745825
    17:00  13149.721680    5.872760    0.771075    0.692987    0.745575
    18:00  12927.333984    5.859888    0.774581    0.692755    0.745375
    19:00  12540.827148    5.837244    0.780702    0.692348    0.745025
    20:00  12500.793945    5.834929    0.781335    0.692306    0.744989
    21:00  12315.677734    5.824028    0.784284    0.692110    0.744820
    22:00  12552.429688    5.838028    0.780510    0.692362    0.745037
    23:00  12980.279297    5.862953    0.773732    0.692810    0.745423
    24:00  13612.521484    5.899391    0.763803    0.693466    0.745987
  
  <<< Node 11 >>>
  
  Time            AGE        TEMP          CL        TTHM        HAA6
  hr:min         MG/L        MG/L        MG/L        uG/L        uG/L
  -------  ----------  ----------  ----------  ----------  ----------
     0:00    0.000000   10.000000    0.000000    0.000000    0.000000
     1:00  3600.000000   10.000000    0.000000    0.000000    0.000000
     2:00  7200.000000   10.000000    0.000000    0.000000    0.000000
     3:00  10800.000000   10.000000    0.000000    0.000000    0.000000
     4:00  14400.000000   10.000000    0.000000    0.000000    0.000000
     5:00  18000.000000   10.000000    0.000000    0.000000    0.000000
     6:00  21600.000000   10.000000    0.000000    0.000000    0.000000
     7:00  25200.000000   10.000000    0.000000    0.000000    0.000000
     8:00  27294.371094    6.608561    0.572746    0.706351    0.757064
     9:00  27097.113281    6.599337    0.575258    0.706182    0.756918
    10:00  25483.474609    6.522744    0.595652    0.704779    0.755715
    11:00  21483.736328    6.326686    0.648572    0.701201    0.752642
    12:00  18088.234375    6.151060    0.696405    0.698011    0.749899
    13:00  16192.138672    6.048355    0.724338    0.696153    0.748300
    14:00  15379.353516    6.003268    0.736582    0.695338    0.747600
    15:00  15184.461914    5.992315    0.739539    0.695141    0.747430
    16:00  14946.393555    5.978902    0.743172    0.694899    0.747221
    17:00  14634.414063    5.961139    0.747959    0.694578    0.746945
    18:00  14443.761719    5.950333    0.750895    0.694384    0.746778
    19:00  14009.516602    5.925483    0.757610    0.693936    0.746392
    20:00  13896.923828    5.919066    0.759356    0.693820    0.746293
    21:00  13720.118164    5.908834    0.762112    0.693636    0.746134
    22:00  13931.783203    5.921148    0.758809    0.693858    0.746325
    23:00  14363.372070    5.945721    0.752120    0.694300    0.746706
    24:00  14978.915039    5.980533    0.742661    0.694928    0.747247
  
  <<< Node 1 >>>
  
  Time            AGE        TEMP          CL        TTHM        HAA6
  hr:min         MG/L        MG/L        MG/L        uG/L        uG/L
  -------  ----------  ----------  ----------  ----------  ----------
     0:00    0.000000   10.000000    0.000000    0.000000    0.000000
     1:00    0.000000    5.000000    1.000000    0.677462    0.732173
     2:00    0.000000    5.000000    1.000000    0.677462    0.732173
     3:00    0.000000    5.000000    1.000000    0.677462    0.732173
     4:00    0.000000    5.000000    1.000000    0.677462    0.732173
     5:00    0.000000    5.000000    1.000000    0.677462    0.732173
     6:00    0.000000    5.000000    1.000000    0.677462    0.732173
     7:00    0.000000    5.000000    1.000000    0.677462    0.732173
     8:00    0.000000    5.000000    1.000000    0.677462    0.732173
     9:00    0.000000    5.000000    1.000000    0.677462    0.732173
    10:00    0.000000    5.000000    1.000000    0.677462    0.732173
    11:00    0.000000    5.000000    1.000000    0.677462    0.732173
    12:00    0.000000    5.000000    1.000000    0.677462    0.732173
    13:00    0.000000    5.000000    1.000000    0.677462    0.732173
    14:00    0.000000    5.000000    1.000000    0.677462    0.732173
    15:00    0.000000    5.000000    1.000000    0.677462    0.732173
    16:00    0.000000    5.000000    1.000000    0.677462    0.732173
    17:00    0.000000    5.000000    1.000000    0.677462    0.732173
    18:00    0.000000    5.000000    1.000000    0.677462    0.732173
    19:00    0.000000    5.000000    1.000000    0.677462    0.732173
    20:00    0.000000    5.000000    1.000000    0.677462    0.732173
    21:00    0.000000    5.000000    1.000000    0.677462    0.732173
    22:00    0.000000    5.000000    1.000000    0.677462    0.732173
    23:00    0.000000    5.000000    1.000000    0.677462    0.732173
    24:00    0.000000    5.000000    1.000000    0.677462    0.732173
  
  Analysis ended Wed Nov 18 09:45:25 2015
