  Page 1                                             09/08/2016 21:20:26
  **********************************************************************
  *                             E P A N E T                            *
  *                     Hydraulic and Water Quality                    *
  *                     Analysis for Pipe Networks                     *
  *                           Version 2.0                              *
  **********************************************************************
  
  Input File: Net3.inp
  
  EPANET Example Network 3
  Example showing how the percent of Lake water in a dual-source 
  system changes over time.
  
  Link - Node Table:
  ----------------------------------------------------------------------
  Link           Start          End                Length  Diameter
  ID             Node           Node                   ft        in
  ----------------------------------------------------------------------
  20             3              20                     99        99
  40             1              40                     99        99
  50             2              50                     99        99
  60             River          60                   1231        24
  101            10             101                 14200        18
  103            101            103                  1350        16
  105            101            105                  2540        12
  107            105            107                  1470        12
  109            103            109                  3940        16
  111            109            111                  2000        12
  112            115            111                  1160        12
  113            111            113                  1680        12
  114            115            113                  2000         8
  115            107            115                  1950         8
  116            113            193                  1660        12
  117            263            105                  2725        12
  119            115            117                  2180        12
  120            119            120                   730        12
  121            120            117                  1870        12
  122            121            120                  2050         8
  123            121            119                  2000        30
  125            123            121                  1500        30
  129            121            125                   930        24
  131            125            127                  3240        24
  133            20             127                   785        20
  135            127            129                   900        24
  137            129            131                  6480        16
  145            129            139                  2750         8
  147            139            141                  2050         8
  149            143            141                  1400         8
  151            15             143                  1650         8
  153            145            141                  3510        12
  155            147            145                  2200        12
  159            147            149                   880        12
  161            149            151                  1020         8


  Page 2                                        EPANET Example Network 3
  Link - Node Table: (continued)
  ----------------------------------------------------------------------
  Link           Start          End                Length  Diameter
  ID             Node           Node                   ft        in
  ----------------------------------------------------------------------
  163            151            153                  1170        12
  169            125            153                  4560         8
  171            119            151                  3460        12
  173            119            157                  2080        30
  175            157            159                  2910        30
  177            159            161                  2000        30
  179            161            163                   430        30
  180            163            164                   150        14
  181            164            166                   490        14
  183            265            169                   590        30
  185            167            169                    60         8
  186            187            204                  99.9         8
  187            169            171                  1270        30
  189            171            173                    50        30
  191            271            171                   760        24
  193            35             181                    30        24
  195            181            177                    30        12
  197            177            179                    30        12
  199            179            183                   210        12
  201            40             179                  1190        12
  202            185            184                  99.9         8
  203            183            185                   510         8
  204            184            205                 4530.        12
  205            204            185                 1325.        12
  207            189            183                  1350        12
  209            189            187                   500         8
  211            169            269                   646        12
  213            191            187                  2560        12
  215            267            189                  1230        12
  217            191            193                   520        12
  219            193            195                   360        12
  221            161            195                  2300         8
  223            197            191                  1150        12
  225            111            197                  2790        12
  229            173            199                  4000        24
  231            199            201                   630        24
  233            201            203                   120        24
  235            199            273                   725        12
  237            205            207                  1200        12
  238            207            206                   450        12
  239            275            207                  1430        12
  240            206            208                   510        12
  241            208            209                   885        12
  243            209            211                  1210        16
  245            211            213                   990        16
  247            213            215                  4285        16
  249            215            217                  1660        16


  Page 3                                        EPANET Example Network 3
  Link - Node Table: (continued)
  ----------------------------------------------------------------------
  Link           Start          End                Length  Diameter
  ID             Node           Node                   ft        in
  ----------------------------------------------------------------------
  251            217            219                  2050        14
  257            217            225                  1560        12
  261            213            229                  2200         8
  263            229            231                  1960        12
  269            211            237                  2080        12
  271            237            229                   790         8
  273            237            239                   510        12
  275            239            241                    35        12
  277            241            243                  2200        12
  281            241            247                   445        10
  283            239            249                   430        12
  285            247            249                    10        12
  287            247            255                  1390        10
  289            50             255                   925        10
  291            255            253                  1100        10
  293            255            251                  1100         8
  295            249            251                  1450        12
  297            120            257                   645         8
  299            257            259                   350         8
  301            259            263                  1400         8
  303            257            261                  1400         8
  305            117            261                   645        12
  307            261            263                   350        12
  309            265            267                  1580         8
  311            193            267                  1170        12
  313            269            189                   646        12
  315            181            271                   260        24
  317            273            275                  2230         8
  319            273            205                   645        12
  321            163            265                  1200        30
  323            201            275                   300        12
  325            269            271                  1290         8
  329            61             123                 45500        30
  330            60             601                     1        30
  333            601            61                      1        30
  10             Lake           10                   #N/A      #N/A Pump
  335            60             61                   #N/A      #N/A Pump
  


  Page 4                                        EPANET Example Network 3
  Energy Usage:
  ----------------------------------------------------------------------
                    Usage   Avg.     Kw-hr      Avg.      Peak      Cost
  Pump             Factor Effic.     /Mgal        Kw        Kw      /day
  ----------------------------------------------------------------------
  10                58.33  75.00    313.57     62.06     62.76      0.00
  335               28.74  75.00    394.08    309.38    310.79      0.00
  ----------------------------------------------------------------------
                                                Demand Charge:      0.00
                                                Total Cost:         0.00
  
  Node Results at 0:00 Hrs:
  ----------------------------------------------------------------------
  Node                Demand      Head  Pressure   Quality
  ID                     GPM        ft       psi   percent
  ----------------------------------------------------------------------
  10                    0.00    145.52     -0.64      0.00
  15                  620.00    125.81     40.65      0.00
  20                    0.00    158.00     12.57      0.00
  35                 1637.00    145.74     57.73      0.00
  40                    0.00    145.00      5.68      0.00
  50                    0.00    140.00     10.18      0.00
  60                    0.00    209.01     90.56      0.00
  601                   0.00    302.45    131.05      0.00
  61                    0.00    302.45    131.05      0.00
  101                 254.53    145.52     44.86      0.00
  103                 178.49    145.49     44.41      0.00
  105                 181.40    146.83     51.27      0.00
  107                  73.22    146.82     54.09      0.00
  109                 310.08    145.49     54.25      0.00
  111                 190.20    146.11     58.98      0.00
  113                  26.81    146.15     62.46      0.00
  115                  69.81    146.92     57.59      0.00
  117                 157.73    150.03     59.12      0.00
  119                 236.01    157.55     67.40      0.00
  120                   0.00    155.12     67.21      0.00
  121                  55.78    161.01     70.63      0.00
  123                   0.00    165.47     66.93      0.00
  125                  61.10    160.43     64.75      0.00
  127                  23.66    158.74     44.52      0.00
  129                   0.00    158.73     46.68      0.00
  131                  57.28    158.71     66.17      0.00
  139                   7.89    153.08     52.90      0.00
  141                  13.20    149.06     62.85      0.00
  143                   8.31    138.25     61.85      0.00
  145                  37.02    150.28     64.68      0.00
  147                  11.46    151.20     57.50      0.00
  149                  36.27    151.60     58.75      0.00
  151                 193.60    155.44     52.84      0.00
  153                  59.19    155.54     38.71      0.00
  157                  69.40    155.11     61.53      0.00
  159                  55.37    151.76     63.16      0.00


  Page 5                                        EPANET Example Network 3
  Node Results at 0:00 Hrs: (continued)
  ----------------------------------------------------------------------
  Node                Demand      Head  Pressure   Quality
  ID                     GPM        ft       psi   percent
  ----------------------------------------------------------------------
  161                  21.17    149.48     63.04      0.00
  163                  12.62    149.02     62.41      0.00
  164                   0.00    149.02     62.41      0.00
  166                   3.48    149.02     65.44      0.00
  167                  19.51    147.15     65.93      0.00
  169                   0.00    147.15     65.93      0.00
  171                  52.72    146.07     65.03      0.00
  173                   0.00    146.05     65.02      0.00
  177                  77.95    145.73     59.68      0.00
  179                   0.00    145.72     59.67      0.00
  181                   0.00    145.75     59.69      0.00
  183                   0.00    145.72     58.37      0.00
  184                   0.00    144.49     55.68      0.00
  185                  34.37    145.08     55.93      0.00
  187                   0.00    145.78     57.75      0.00
  189                 144.61    146.09     61.57      0.00
  191                 109.75    146.05     52.45      0.00
  193                  95.56    146.15     55.53      0.00
  195                   0.00    146.22     56.64      0.00
  197                  22.83    146.06     53.32      0.00
  199                 159.89    140.83     61.89      0.00
  201                  59.78    140.10     60.66      0.00
  203                4439.00    139.93     59.77      0.00
  204                   0.00    145.53     53.96      0.00
  205                  87.58    140.80     51.91      0.00
  206                   0.00    139.89     60.18      0.00
  207                  92.98    140.10     56.80      0.00
  208                   0.00    139.67     53.58      0.00
  209                   1.17    139.27     61.21      0.00
  211                  11.62    139.14     57.25      0.00
  213                  18.68    139.07     57.23      0.00
  215                 123.53    138.88     57.14      0.00
  217                  32.45    138.86     57.57      0.00
  219                  55.37    138.85     58.43      0.00
  225                  30.55    138.85     56.70      0.00
  229                  86.00    138.98     55.67      0.00
  231                  22.08    138.97     58.05      0.00
  237                  20.92    139.08     54.20      0.00
  239                  59.78    139.08     54.63      0.00
  241                   0.00    139.09     54.63      0.00
  243                   5.82    139.08     54.20      0.00
  247                  94.31    139.09     52.47      0.00
  249                   0.00    139.09     52.47      0.00
  251                  32.37    139.10     47.27      0.00
  253                  73.06    139.22     44.72      0.00
  255                  54.12    139.27     48.65      0.00
  257                   0.00    152.00     58.49      0.00


  Page 6                                        EPANET Example Network 3
  Node Results at 0:00 Hrs: (continued)
  ----------------------------------------------------------------------
  Node                Demand      Head  Pressure   Quality
  ID                     GPM        ft       psi   percent
  ----------------------------------------------------------------------
  259                   0.00    151.56     54.84      0.00
  261                   0.00    149.98     64.99      0.00
  263                   0.00    149.82     64.92      0.00
  265                   0.00    147.75     64.02      0.00
  267                   0.00    146.17     54.24      0.00
  269                   0.00    146.49     63.48      0.00
  271                   0.00    145.84     60.59      0.00
  273                   0.00    140.80     57.54      0.00
  275                   0.00    140.10     56.37      0.00
  River            -13157.88    220.00      0.00      0.00 Reservoir
  Lake                  0.00    167.00      0.00    100.00 Reservoir
  1                   460.32    145.00      5.68      0.00 Tank
  2                  -329.21    140.00     10.18      0.00 Tank
  3                  2246.30    158.00     12.57      0.00 Tank
  
  Link Results at 0:00 Hrs:
  ----------------------------------------------------------------------
  Link                  Flow  VelocityUnit Headloss    Status
  ID                     GPM       fps    ft/Kft
  ----------------------------------------------------------------------
  20                -2246.30      0.09      0.00      Open
  40                 -460.32      0.02      0.00      Open
  50                  329.21      0.01      0.00      Open
  60                13157.88      9.33      8.93      Open
  101                   0.00      0.00      0.00      Open
  103                 168.06      0.27      0.02      Open
  105                -422.59      1.20      0.51      Open
  107                  32.30      0.09      0.00      Open
  109                 -10.43      0.02      0.00      Open
  111                -320.51      0.91      0.31      Open
  112                 498.35      1.41      0.70      Open
  113                 -80.63      0.23      0.02      Open
  114                 124.37      0.79      0.38      Open
  115                 -40.92      0.26      0.05      Open
  116                  16.93      0.05      0.00      Open
  117                 636.29      1.81      1.10      Open
  119                -733.46      2.08      1.43      Open
  120                1159.13      3.29      3.33      Open
  121                1039.29      2.95      2.72      Open
  122                 368.34      2.35      2.87      Open
  123                9821.71      4.46      1.73      Open
  125               13157.88      5.97      2.97      Open
  129                2912.04      2.07      0.63      Open
  131                2634.65      1.87      0.52      Open
  133               -2246.30      2.29      0.94      Open
  135                 364.69      0.26      0.01      Open
  137                  57.28      0.09      0.00      Open


  Page 7                                        EPANET Example Network 3
  Link Results at 0:00 Hrs: (continued)
  ----------------------------------------------------------------------
  Link                  Flow  VelocityUnit Headloss    Status
  ID                     GPM       fps    ft/Kft
  ----------------------------------------------------------------------
  145                 307.41      1.96      2.06      Open
  147                 299.51      1.91      1.96      Open
  149                -628.31      4.01      7.72      Open
  151                -620.00      3.96      7.54      Open
  153                 341.99      0.97      0.35      Open
  155                 379.02      1.08      0.42      Open
  159                -390.47      1.11      0.44      Open
  161                -426.75      2.72      3.77      Open
  163                -157.09      0.45      0.08      Open
  169                 216.28      1.38      1.07      Open
  171                 463.26      1.31      0.61      Open
  173                7963.30      3.61      1.17      Open
  175                7893.91      3.58      1.15      Open
  177                7838.54      3.56      1.14      Open
  179                7565.72      3.43      1.07      Open
  180                   3.48      0.01      0.00      Open
  181                   3.48      0.01      0.00      Open
  183                7341.33      3.33      1.01      Open
  185                 -19.51      0.12      0.01      Open
  186                 340.16      2.17      2.48      Open
  187                6708.97      3.05      0.85      Open
  189                4690.03      2.13      0.44      Open
  191               -1966.23      1.39      0.30      Open
  193               -1637.00      1.16      0.22      Open
  195                 473.47      1.34      0.63      Open
  197                 395.52      1.12      0.45      Open
  199                 -64.80      0.18      0.02      Open
  201                -460.32      1.31      0.60      Open
  202                 541.82      3.46      5.87      Open
  203                 236.03      1.51      1.26      Open
  204                 541.82      1.54      0.81      Open
  205                 340.16      0.96      0.34      Open
  207                 300.83      0.85      0.27      Open
  209                 160.66      1.03      0.62      Open
  211                 612.84      1.74      1.02      Open
  213                 179.50      0.51      0.11      Open
  215                 137.51      0.39      0.06      Open
  217                -243.80      0.69      0.19      Open
  219                -251.65      0.71      0.20      Open
  221                 251.65      1.61      1.42      Open
  223                  45.44      0.13      0.01      Open
  225                  68.28      0.19      0.02      Open
  229                4690.03      3.33      1.30      Open
  231                4419.40      3.13      1.17      Open
  233                4439.00      3.15      1.37      Open
  235                 110.74      0.31      0.04      Open
  237                 453.73      1.29      0.59      Open


  Page 8                                        EPANET Example Network 3
  Link Results at 0:00 Hrs: (continued)
  ----------------------------------------------------------------------
  Link                  Flow  VelocityUnit Headloss    Status
  ID                     GPM       fps    ft/Kft
  ----------------------------------------------------------------------
  238                 392.62      1.11      0.45      Open
  239                  31.87      0.09      0.00      Open
  240                 392.62      1.11      0.45      Open
  241                 392.62      1.11      0.45      Open
  243                 391.45      0.62      0.11      Open
  245                 298.08      0.48      0.07      Open
  247                 241.91      0.39      0.05      Open
  249                 118.38      0.19      0.01      Open
  251                  55.37      0.12      0.01      Open
  257                  30.55      0.09      0.00      Open
  261                  37.49      0.24      0.04      Open
  263                  22.08      0.06      0.00      Open
  269                  81.76      0.23      0.02      Open
  271                  70.60      0.45      0.13      Open
  273                  -9.76      0.03      0.00      Open
  275                 -22.78      0.06      0.00      Open
  277                   5.82      0.02      0.00      Open
  281                 -28.60      0.12      0.01      Open
  283                 -46.75      0.13      0.01      Open
  285                   2.62      0.01      0.00      Open
  287                -125.53      0.51      0.13      Open
  289                 329.21      1.34      0.79      Open
  291                  73.06      0.30      0.05      Open
  293                  76.50      0.49      0.16      Open
  295                 -44.13      0.13      0.01      Open
  297                 488.19      3.12      4.84      Open
  299                 234.55      1.50      1.25      Open
  301                 234.55      1.50      1.25      Open
  303                 253.64      1.62      1.44      Open
  305                 148.10      0.42      0.07      Open
  307                 401.74      1.14      0.47      Open
  309                 208.28      1.33      1.00      Open
  311                 -70.78      0.20      0.02      Open
  313                 468.60      1.33      0.62      Open
  315               -2110.47      1.50      0.35      Open
  317                 111.25      0.71      0.31      Open
  319                  -0.51      0.00      0.00      Open
  321                7549.61      3.43      1.06      Open
  323                 -79.37      0.23      0.02      Open
  325                 144.25      0.92      0.51      Open
  329               13157.88      5.97      3.01      Open
  330                   0.00      0.00      0.00    Closed
  333                   0.00      0.00      0.00      Open
  10                    0.00      0.00      0.00    Closed Pump
  335               13157.88      0.00    -93.44      Open Pump
  


  Page 9                                        EPANET Example Network 3
  Node Results at 1:00 Hrs:
  ----------------------------------------------------------------------
  Node                Demand      Head  Pressure   Quality
  ID                     GPM        ft       psi   percent
  ----------------------------------------------------------------------
  10                    0.00    239.70     40.17      0.00
  15                  620.00    126.77     41.07      0.00
  20                    0.00    158.85     12.94      0.00
  35                 1706.00    148.70     59.02      0.00
  40                    0.00    145.65      5.96      0.00
  50                    0.00    138.66      9.60      0.00
  60                    0.00    209.16     90.63      0.00
  601                   0.00    303.45    131.48      0.00
  61                    0.00    303.45    131.48      0.00
  101                 368.50    172.80     56.68      0.00
  103                 258.41    170.18     55.11      0.00
  105                 262.62    163.49     58.49      0.00
  107                 106.00    162.76     60.99      0.00
  109                 448.92    164.39     62.43      0.00
  111                 275.36    157.94     64.10      0.00
  113                  38.82    155.99     66.72      0.00
  115                 101.07    158.76     62.73      0.00
  117                 228.36    160.57     63.68      0.00
  119                 341.69    161.00     68.89      0.00
  120                   0.00    161.00     69.76      0.00
  121                  80.76    163.91     71.89      0.00
  123                   0.00    168.30     68.16      0.00
  125                  88.46    162.96     65.84      0.00
  127                  34.26    160.15     45.13      0.00
  129                   0.00    160.13     47.29      0.00
  131                  82.93    160.09     66.77      0.00
  139                  11.43    154.24     53.40      0.00
  141                  19.11    150.14     63.32      0.00
  143                  12.03    139.21     62.27      0.00
  145                  53.60    151.40     65.17      0.00
  147                  16.59    152.43     58.03      0.00
  149                  52.52    152.88     59.31      0.00
  151                 280.29    157.50     53.73      0.00
  153                  85.69    157.58     39.59      0.00
  157                 100.47    158.53     63.01      0.00
  159                  80.16    155.16     64.63      0.00
  161                  30.65    152.88     64.51      0.00
  163                  18.27    152.40     63.87      0.00
  164                   0.00    152.40     63.87      0.00
  166                   5.04    152.40     66.90      0.00
  167                  28.25    150.40     67.33      0.00
  169                   0.00    150.40     67.33      0.00
  171                  76.32    149.09     66.33      0.00
  173                   0.00    149.06     66.32      0.00
  177                 112.85    148.67     60.95      0.00
  179                   0.00    148.65     60.94      0.00
  181                   0.00    148.71     60.97      0.00


  Page 10                                       EPANET Example Network 3
  Node Results at 1:00 Hrs: (continued)
  ----------------------------------------------------------------------
  Node                Demand      Head  Pressure   Quality
  ID                     GPM        ft       psi   percent
  ----------------------------------------------------------------------
  183                   0.00    148.77     59.70      0.00
  184                   0.00    147.69     57.06      0.00
  185                  49.76    148.50     57.41      0.00
  187                   0.00    150.17     59.65      0.00
  189                 209.36    150.11     63.31      0.00
  191                 158.89    152.75     55.36      0.00
  193                 138.34    152.77     58.40      0.00
  195                   0.00    152.77     59.48      0.00
  197                  33.06    154.17     56.84      0.00
  199                 231.48    142.74     62.71      0.00
  201                  86.54    141.88     61.43      0.00
  203                4531.00    141.71     60.54      0.00
  204                   0.00    149.58     55.71      0.00
  205                 126.80    142.64     52.71      0.00
  206                   0.00    140.85     60.60      0.00
  207                 134.62    141.50     57.41      0.00
  208                   0.00    140.12     53.78      0.00
  209                   1.69    138.84     61.03      0.00
  211                  16.82    138.42     56.94      0.00
  213                  27.04    138.27     56.88      0.00
  215                 178.85    137.89     56.71      0.00
  217                  46.99    137.85     57.13      0.00
  219                  80.16    137.82     57.99      0.00
  225                  44.23    137.83     56.26      0.00
  229                 124.51    137.87     55.19      0.00
  231                  31.97    137.86     57.57      0.00
  237                  30.28    137.98     53.72      0.00
  239                  86.54    137.94     54.14      0.00
  241                   0.00    137.94     54.14      0.00
  243                   8.42    137.94     53.70      0.00
  247                 136.54    137.94     51.97      0.00
  249                   0.00    137.94     51.97      0.00
  251                  46.87    137.94     46.77      0.00
  253                 105.77    137.91     44.16      0.00
  255                  78.36    138.01     48.10      0.00
  257                   0.00    161.04     62.41      0.00
  259                   0.00    161.08     58.96      0.00
  261                   0.00    161.02     69.77      0.00
  263                   0.00    161.25     69.87      0.00
  265                   0.00    151.07     65.46      0.00
  267                   0.00    151.32     56.47      0.00
  269                   0.00    150.16     65.06      0.00
  271                   0.00    148.82     61.88      0.00
  273                   0.00    142.65     58.34      0.00
  275                   0.00    141.86     57.13      0.00
  River            -13062.03    220.00      0.00      0.00 Reservoir
  Lake              -3435.20    167.00      0.00    100.00 Reservoir


  Page 11                                       EPANET Example Network 3
  Node Results at 1:00 Hrs: (continued)
  ----------------------------------------------------------------------
  Node                Demand      Head  Pressure   Quality
  ID                     GPM        ft       psi   percent
  ----------------------------------------------------------------------
  1                   996.56    145.65      5.96      0.00 Tank
  2                  -307.71    138.66      9.60      0.00 Tank
  3                  3038.04    158.85     12.94      0.00 Tank
  
  Link Results at 1:00 Hrs:
  ----------------------------------------------------------------------
  Link                  Flow  VelocityUnit Headloss    Status
  ID                     GPM       fps    ft/Kft
  ----------------------------------------------------------------------
  20                -3038.04      0.13      0.00      Open
  40                 -996.56      0.04      0.00      Open
  50                  307.71      0.01      0.00      Open
  60                13062.03      9.26      8.81      Open
  101                3435.20      4.33      4.71      Open
  103                1846.16      2.95      1.94      Open
  105                1220.53      3.46      3.67      Open
  107                 413.09      1.17      0.49      Open
  109                1587.75      2.53      1.47      Open
  111                1138.84      3.23      3.22      Open
  112                 503.62      1.43      0.71      Open
  113                 655.73      1.86      1.16      Open
  114                 248.60      1.59      1.39      Open
  115                 307.09      1.96      2.05      Open
  116                 865.52      2.46      1.94      Open
  117                -544.83      1.55      0.82      Open
  119                -546.21      1.55      0.83      Open
  120                 -21.77      0.06      0.00      Open
  121                 274.75      0.78      0.23      Open
  122                 251.51      1.61      1.42      Open
  123                8943.91      4.06      1.45      Open
  125               13062.03      5.93      2.93      Open
  129                3785.85      2.68      1.02      Open
  131                3469.58      2.46      0.87      Open
  133               -3038.04      3.10      1.65      Open
  135                 397.28      0.28      0.02      Open
  137                  82.93      0.13      0.01      Open
  145                 314.34      2.01      2.14      Open
  147                 302.92      1.93      2.00      Open
  149                -632.03      4.03      7.81      Open
  151                -620.00      3.96      7.54      Open
  153                 348.22      0.99      0.36      Open
  155                 401.82      1.14      0.47      Open
  159                -418.41      1.19      0.50      Open
  161                -470.93      3.01      4.53      Open
  163                -142.12      0.40      0.07      Open
  169                 227.81      1.45      1.18      Open
  171                 609.10      1.73      1.01      Open


  Page 12                                       EPANET Example Network 3
  Link Results at 1:00 Hrs: (continued)
  ----------------------------------------------------------------------
  Link                  Flow  VelocityUnit Headloss    Status
  ID                     GPM       fps    ft/Kft
  ----------------------------------------------------------------------
  173                8014.88      3.64      1.19      Open
  175                7914.41      3.59      1.16      Open
  177                7834.25      3.56      1.14      Open
  179                7762.99      3.52      1.12      Open
  180                   5.04      0.01      0.00      Open
  181                   5.04      0.01      0.00      Open
  183                7817.51      3.55      1.13      Open
  185                 -28.25      0.18      0.02      Open
  186                 542.85      3.46      5.89      Open
  187                7431.51      3.37      1.03      Open
  189                5205.59      2.36      0.53      Open
  191               -2149.60      1.52      0.36      Open
  193               -1706.00      1.21      0.23      Open
  195                 656.05      1.86      1.16      Open
  197                 543.20      1.54      0.82      Open
  199                -453.37      1.29      0.59      Open
  201                -996.56      2.83      2.52      Open
  202                 642.17      4.10      8.04      Open
  203                 149.08      0.95      0.54      Open
  204                 642.17      1.82      1.12      Open
  205                 542.85      1.54      0.82      Open
  207                 602.45      1.71      0.99      Open
  209                 -65.68      0.42      0.12      Open
  211                 357.75      1.01      0.38      Open
  213                 608.54      1.73      1.01      Open
  215                 600.83      1.70      0.99      Open
  217                 -89.12      0.25      0.03      Open
  219                 -40.61      0.12      0.01      Open
  221                  40.61      0.26      0.05      Open
  223                 678.31      1.92      1.24      Open
  225                 711.36      2.02      1.35      Open
  229                5205.59      3.69      1.58      Open
  231                4783.02      3.39      1.35      Open
  233                4531.00      3.21      1.42      Open
  235                 191.09      0.54      0.12      Open
  237                 587.22      1.67      0.95      Open
  238                 737.33      2.09      1.44      Open
  239                 284.72      0.81      0.25      Open
  240                 737.33      2.09      1.44      Open
  241                 737.33      2.09      1.44      Open
  243                 735.64      1.17      0.35      Open
  245                 460.16      0.73      0.15      Open
  247                 350.23      0.56      0.09      Open
  249                 171.38      0.27      0.02      Open
  251                  80.16      0.17      0.01      Open
  257                  44.23      0.13      0.01      Open
  261                  82.88      0.53      0.18      Open


  Page 13                                       EPANET Example Network 3
  Link Results at 1:00 Hrs: (continued)
  ----------------------------------------------------------------------
  Link                  Flow  VelocityUnit Headloss    Status
  ID                     GPM       fps    ft/Kft
  ----------------------------------------------------------------------
  263                  31.97      0.09      0.00      Open
  269                 258.66      0.73      0.21      Open
  271                  73.60      0.47      0.15      Open
  273                 154.79      0.44      0.08      Open
  275                  30.78      0.09      0.00      Open
  277                   8.42      0.02      0.00      Open
  281                  22.36      0.09      0.01      Open
  283                  37.46      0.11      0.01      Open
  285                 -38.38      0.11      0.01      Open
  287                 -75.79      0.31      0.05      Open
  289                 307.71      1.26      0.69      Open
  291                 105.77      0.43      0.10      Open
  293                  47.79      0.31      0.07      Open
  295                  -0.92      0.00      0.00      Open
  297                 -45.01      0.29      0.06      Open
  299                 -66.18      0.42      0.12      Open
  301                 -66.18      0.42      0.12      Open
  303                  21.17      0.14      0.01      Open
  305                -499.82      1.42      0.70      Open
  307                -478.65      1.36      0.65      Open
  309                 -77.84      0.50      0.16      Open
  311                 678.67      1.93      1.24      Open
  313                 145.30      0.41      0.07      Open
  315               -2362.05      1.68      0.43      Open
  317                 119.24      0.76      0.36      Open
  319                  71.85      0.20      0.02      Open
  321                7739.67      3.51      1.11      Open
  323                 165.48      0.47      0.09      Open
  325                 212.45      1.36      1.04      Open
  329               13062.03      5.93      2.97      Open
  330                   0.00      0.00      0.00    Closed
  333                   0.00      0.00      0.00      Open
  10                 3435.20      0.00    -72.70      Open Pump
  335               13062.03      0.00    -94.29      Open Pump
  
  Node Results at 2:00 Hrs:
  ----------------------------------------------------------------------
  Node                Demand      Head  Pressure   Quality
  ID                     GPM        ft       psi   percent
  ----------------------------------------------------------------------
  10                    0.00    241.37     40.89    100.00
  15                  620.00    130.44     42.65      0.00
  20                    0.00    160.01     13.44      0.00
  35                 1719.00    151.70     60.32      0.00
  40                    0.00    147.06      6.57      0.00
  50                    0.00    137.40      9.06      0.00
  60                    0.00    209.30     90.69      0.00


  Page 14                                       EPANET Example Network 3
  Node Results at 2:00 Hrs: (continued)
  ----------------------------------------------------------------------
  Node                Demand      Head  Pressure   Quality
  ID                     GPM        ft       psi   percent
  ----------------------------------------------------------------------
  601                   0.00    304.38    131.89      0.00
  61                    0.00    304.38    131.89      0.00
  101                 277.33    178.21     59.02      7.12
  103                 194.47    175.75     57.52      0.00
  105                 197.64    168.17     60.52      0.00
  107                  79.77    167.47     63.03      0.00
  109                 337.84    169.97     64.85      0.00
  111                 207.23    162.31     65.99      0.00
  113                  29.21    160.04     68.48      0.00
  115                  76.07    162.94     64.53      0.00
  117                 171.86    164.13     65.22      0.00
  119                 257.15    164.00     70.20      0.00
  120                   0.00    164.18     71.14      0.00
  121                  60.78    166.61     73.06      0.00
  123                   0.00    170.95     69.31      0.00
  125                  66.58    165.43     66.92      0.00
  127                  25.78    161.80     45.84      0.00
  129                   0.00    161.79     48.00      0.00
  131                  62.42    161.76     67.49      0.00
  139                   8.60    157.04     54.61      0.00
  141                  14.38    153.71     64.87      0.00
  143                   9.05    142.87     63.86      0.00
  145                  40.34    155.14     66.79      0.00
  147                  12.48    156.22     59.67      0.00
  149                  39.52    156.68     60.96      0.00
  151                 210.94    161.19     55.33      0.00
  153                  64.49    161.26     41.19      0.00
  157                  75.61    161.59     64.34      0.00
  159                  60.33    158.28     65.98      0.00
  161                  23.07    156.03     65.87      0.00
  163                  13.75    155.54     65.23      0.00
  164                   0.00    155.54     65.23      0.00
  166                   3.80    155.54     68.26      0.00
  167                  21.26    153.50     68.68      0.00
  169                   0.00    153.50     68.68      0.00
  171                  57.44    152.14     67.66      0.00
  173                   0.00    152.12     67.65      0.00
  177                  84.93    151.66     62.25      0.00
  179                   0.00    151.62     62.23      0.00
  181                   0.00    151.71     62.27      0.00
  183                   0.00    151.78     61.00      0.00
  184                   0.00    150.78     58.40      0.00
  185                  37.45    151.59     58.75      0.00
  187                   0.00    153.39     61.05      0.00
  189                 157.56    153.30     64.69      0.00
  191                 119.57    156.32     56.90      0.00
  193                 104.11    156.32     59.93      0.00


  Page 15                                       EPANET Example Network 3
  Node Results at 2:00 Hrs: (continued)
  ----------------------------------------------------------------------
  Node                Demand      Head  Pressure   Quality
  ID                     GPM        ft       psi   percent
  ----------------------------------------------------------------------
  195                   0.00    156.31     61.01      0.00
  197                  24.88    157.99     58.49      0.00
  199                 174.21    145.76     64.03      0.00
  201                  65.13    144.90     62.74      0.00
  203                4511.00    144.73     61.84      0.00
  204                   0.00    152.76     57.09      0.00
  205                  95.43    145.63     54.00      0.00
  206                   0.00    143.29     61.65      0.00
  207                 101.31    144.26     58.61      0.00
  208                   0.00    142.18     54.67      0.00
  209                   1.27    140.26     61.64      0.00
  211                  12.66    139.62     57.46      0.00
  213                  20.35    139.49     57.41      0.00
  215                 134.60    139.26     57.31      0.00
  217                  35.36    139.24     57.73      0.00
  219                  60.33    139.22     58.59      0.00
  225                  33.29    139.23     56.86      0.00
  229                  93.70    138.32     55.38      0.00
  231                  24.06    138.31     57.77      0.00
  237                  22.79    138.30     53.86      0.00
  239                  65.13    137.96     54.15      0.00
  241                   0.00    137.96     54.15      0.00
  243                   6.34    137.96     53.71      0.00
  247                 102.75    137.88     51.94      0.00
  249                   0.00    137.88     51.94      0.00
  251                  35.27    137.79     46.71      0.00
  253                  79.60    137.47     43.97      0.00
  255                  58.97    137.53     47.89      0.00
  257                   0.00    164.52     63.92      0.00
  259                   0.00    164.60     60.49      0.00
  261                   0.00    164.62     71.33      0.00
  263                   0.00    164.93     71.46      0.00
  265                   0.00    154.19     66.81      0.00
  267                   0.00    154.63     57.90      0.00
  269                   0.00    153.32     66.43      0.00
  271                   0.00    151.84     63.19      0.00
  273                   0.00    145.65     59.65      0.00
  275                   0.00    144.84     58.43      0.00
  River            -12972.12    220.00      0.00      0.00 Reservoir
  Lake              -3330.25    167.00      0.00    100.00 Reservoir
  1                  1249.69    147.06      6.57      0.00 Tank
  2                   132.71    137.40      9.06      0.00 Tank
  3                  3619.73    160.01     13.44      0.00 Tank
  


  Page 16                                       EPANET Example Network 3
  Link Results at 2:00 Hrs:
  ----------------------------------------------------------------------
  Link                  Flow  VelocityUnit Headloss    Status
  ID                     GPM       fps    ft/Kft
  ----------------------------------------------------------------------
  20                -3619.73      0.15      0.00      Open
  40                -1249.69      0.05      0.00      Open
  50                 -132.71      0.01      0.00      Open
  60                12972.12      9.20      8.70      Open
  101                3330.25      4.20      4.45      Open
  103                1781.95      2.84      1.82      Open
  105                1270.97      3.61      3.95      Open
  107                 408.15      1.16      0.48      Open
  109                1587.48      2.53      1.47      Open
  111                1249.64      3.54      3.83      Open
  112                 434.96      1.23      0.54      Open
  113                 711.21      2.02      1.35      Open
  114                 254.36      1.62      1.45      Open
  115                 328.38      2.10      2.32      Open
  116                 936.35      2.66      2.24      Open
  117                -665.18      1.89      1.19      Open
  119                -437.00      1.24      0.55      Open
  120                -284.45      0.81      0.25      Open
  121                  89.36      0.25      0.03      Open
  122                 228.14      1.46      1.18      Open
  123                8430.48      3.83      1.30      Open
  125               12972.12      5.89      2.89      Open
  129                4252.72      3.02      1.26      Open
  131                3987.51      2.83      1.12      Open
  133               -3619.73      3.70      2.28      Open
  135                 342.00      0.24      0.01      Open
  137                  62.42      0.10      0.00      Open
  145                 279.58      1.78      1.72      Open
  147                 270.98      1.73      1.63      Open
  149                -629.05      4.02      7.74      Open
  151                -620.00      3.96      7.54      Open
  153                 372.45      1.06      0.41      Open
  155                 412.79      1.17      0.49      Open
  159                -425.27      1.21      0.52      Open
  161                -464.80      2.97      4.42      Open
  163                -134.15      0.38      0.06      Open
  169                 198.64      1.27      0.92      Open
  171                 541.59      1.54      0.81      Open
  173                7916.19      3.59      1.16      Open
  175                7840.58      3.56      1.14      Open
  177                7780.25      3.53      1.12      Open
  179                7824.07      3.55      1.13      Open
  180                   3.80      0.01      0.00      Open
  181                   3.80      0.01      0.00      Open
  183                7911.57      3.59      1.16      Open
  185                 -21.26      0.14      0.01      Open
  186                 565.05      3.61      6.35      Open


  Page 17                                       EPANET Example Network 3
  Link Results at 2:00 Hrs: (continued)
  ----------------------------------------------------------------------
  Link                  Flow  VelocityUnit Headloss    Status
  ID                     GPM       fps    ft/Kft
  ----------------------------------------------------------------------
  187                7579.96      3.44      1.07      Open
  189                5218.04      2.37      0.54      Open
  191               -2304.48      1.63      0.41      Open
  193               -1719.00      1.22      0.24      Open
  195                 809.88      2.30      1.72      Open
  197                 724.95      2.06      1.40      Open
  199                -524.74      1.49      0.77      Open
  201               -1249.69      3.55      3.83      Open
  202                 648.21      4.14      8.18      Open
  203                 120.61      0.77      0.36      Open
  204                 648.21      1.84      1.14      Open
  205                 565.05      1.60      0.88      Open
  207                 645.35      1.83      1.13      Open
  209                 -84.93      0.54      0.19      Open
  211                 310.35      0.88      0.29      Open
  213                 649.98      1.84      1.14      Open
  215                 632.03      1.79      1.08      Open
  217                 -28.28      0.08      0.00      Open
  219                  66.88      0.19      0.02      Open
  221                 -66.88      0.43      0.12      Open
  223                 741.27      2.10      1.46      Open
  225                 766.15      2.17      1.55      Open
  229                5218.04      3.70      1.59      Open
  231                4825.72      3.42      1.37      Open
  233                4511.00      3.20      1.41      Open
  235                 218.11      0.62      0.15      Open
  237                 649.94      1.84      1.14      Open
  238                 919.18      2.61      2.17      Open
  239                 370.55      1.05      0.40      Open
  240                 919.18      2.61      2.17      Open
  241                 919.18      2.61      2.17      Open
  243                 917.91      1.46      0.53      Open
  245                 431.87      0.69      0.13      Open
  247                 263.57      0.42      0.05      Open
  249                 128.98      0.21      0.01      Open
  251                  60.33      0.13      0.01      Open
  257                  33.29      0.09      0.00      Open
  261                 147.95      0.94      0.53      Open
  263                  24.06      0.07      0.00      Open
  269                 473.37      1.34      0.63      Open
  271                 -30.18      0.19      0.03      Open
  273                 480.77      1.36      0.65      Open
  275                 159.60      0.45      0.08      Open
  277                   6.34      0.02      0.00      Open
  281                 153.26      0.63      0.19      Open
  283                 256.04      0.73      0.20      Open
  285                -125.43      0.36      0.05      Open


  Page 18                                       EPANET Example Network 3
  Link Results at 2:00 Hrs: (continued)
  ----------------------------------------------------------------------
  Link                  Flow  VelocityUnit Headloss    Status
  ID                     GPM       fps    ft/Kft
  ----------------------------------------------------------------------
  287                 175.94      0.72      0.25      Open
  289                -132.71      0.54      0.15      Open
  291                  79.60      0.33      0.06      Open
  293                 -95.33      0.61      0.24      Open
  295                 130.61      0.37      0.06      Open
  297                -145.68      0.93      0.52      Open
  299                 -95.49      0.61      0.24      Open
  301                 -95.49      0.61      0.24      Open
  303                 -50.19      0.32      0.07      Open
  305                -519.50      1.47      0.75      Open
  307                -569.68      1.62      0.89      Open
  309                -105.05      0.67      0.28      Open
  311                 737.08      2.09      1.44      Open
  313                  85.96      0.24      0.03      Open
  315               -2528.88      1.79      0.48      Open
  317                 120.96      0.77      0.37      Open
  319                  97.15      0.28      0.03      Open
  321                7806.52      3.54      1.13      Open
  323                 249.59      0.71      0.19      Open
  325                 224.40      1.43      1.15      Open
  329               12972.12      5.89      2.93      Open
  330                   0.00      0.00      0.00    Closed
  333                   0.00      0.00      0.00      Open
  10                 3330.25      0.00    -74.37      Open Pump
  335               12972.12      0.00    -95.08      Open Pump
  
  Node Results at 3:00 Hrs:
  ----------------------------------------------------------------------
  Node                Demand      Head  Pressure   Quality
  ID                     GPM        ft       psi   percent
  ----------------------------------------------------------------------
  10                    0.00    241.72     41.04    100.00
  15                  620.00    131.79     43.24      0.00
  20                    0.00    161.38     14.03      0.00
  35                 1719.00    152.98     60.87      0.00
  40                    0.00    148.83      7.33      0.00
  50                    0.00    137.94      9.29      0.00
  60                    0.00    209.36     90.72      0.00
  601                   0.00    304.81    132.07      0.00
  61                    0.00    304.81    132.07      0.00
  101                 273.53    179.34     59.51    100.00
  103                 191.81    176.92     58.03    100.00
  105                 194.93    169.41     61.06    100.00
  107                  78.68    168.71     63.57    100.00
  109                 333.22    171.19     65.38    100.00
  111                 204.39    163.57     66.54     74.47
  113                  28.81    161.31     69.03     29.92


  Page 19                                       EPANET Example Network 3
  Node Results at 3:00 Hrs: (continued)
  ----------------------------------------------------------------------
  Node                Demand      Head  Pressure   Quality
  ID                     GPM        ft       psi   percent
  ----------------------------------------------------------------------
  115                  75.02    164.20     65.08     42.58
  117                 169.50    165.40     65.77     85.32
  119                 253.63    165.27     70.75      0.00
  120                   0.00    165.45     71.69      0.00
  121                  59.95    167.87     73.61      0.00
  123                   0.00    172.19     69.84      0.00
  125                  65.66    166.72     67.47      0.00
  127                  25.43    163.14     46.42      0.00
  129                   0.00    163.13     48.59      0.00
  131                  61.56    163.11     68.07      0.00
  139                   8.48    158.39     55.20      0.00
  141                  14.18    155.06     65.45      0.00
  143                   8.93    144.22     64.44      0.00
  145                  39.79    156.48     67.37      0.00
  147                  12.31    157.56     60.26      0.00
  149                  38.98    158.02     61.54      0.00
  151                 208.05    162.50     55.90      0.00
  153                  63.60    162.57     41.76      0.00
  157                  74.58    162.86     64.89      0.00
  159                  59.50    159.54     66.53      0.00
  161                  22.75    157.29     66.42      0.00
  163                  13.56    156.80     65.78      0.00
  164                   0.00    156.80     65.78      0.00
  166                   3.74    156.80     68.81      0.00
  167                  20.97    154.76     69.22      0.00
  169                   0.00    154.76     69.22      0.00
  171                  56.65    153.40     68.20      0.00
  173                   0.00    153.37     68.19      0.00
  177                  83.76    152.94     62.80      0.00
  179                   0.00    152.90     62.79      0.00
  181                   0.00    152.98     62.82      0.00
  183                   0.00    153.06     61.55      0.00
  184                   0.00    152.01     58.93      0.00
  185                  36.94    152.85     59.30      0.00
  187                   0.00    154.66     61.60      0.00
  189                 155.40    154.56     65.24      0.00
  191                 117.94    157.59     57.45      0.03
  193                 102.69    157.59     60.48      0.90
  195                   0.00    157.58     61.56      0.00
  197                  24.54    159.26     59.04      3.73
  199                 171.82    146.84     64.49      0.00
  201                  64.24    145.95     63.20      0.00
  203                4582.00    145.78     62.30      0.00
  204                   0.00    154.02     57.64      0.00
  205                  94.12    146.71     54.47      0.00
  206                   0.00    144.27     62.08      0.00
  207                  99.92    145.29     59.05      0.00


  Page 20                                       EPANET Example Network 3
  Node Results at 3:00 Hrs: (continued)
  ----------------------------------------------------------------------
  Node                Demand      Head  Pressure   Quality
  ID                     GPM        ft       psi   percent
  ----------------------------------------------------------------------
  208                   0.00    143.12     55.08      0.00
  209                   1.25    141.12     62.01      0.00
  211                  12.48    140.45     57.82      0.00
  213                  20.07    140.31     57.76      0.00
  215                 132.75    140.09     57.67      0.00
  217                  34.88    140.07     58.09      0.00
  219                  59.50    140.06     58.95      0.00
  225                  32.83    140.06     57.22      0.00
  229                  92.42    139.06     55.70      0.00
  231                  23.73    139.05     58.09      0.00
  237                  22.48    139.02     54.17      0.00
  239                  64.24    138.66     54.45      0.00
  241                   0.00    138.65     54.45      0.00
  243                   6.25    138.65     54.01      0.00
  247                 101.35    138.56     52.24      0.00
  249                   0.00    138.56     52.24      0.00
  251                  34.79    138.46     47.00      0.00
  253                  78.51    138.08     44.23      0.00
  255                  58.16    138.14     48.16      0.00
  257                   0.00    165.78     64.47      0.00
  259                   0.00    165.86     61.04      0.00
  261                   0.00    165.88     71.88    100.00
  263                   0.00    166.19     72.01    100.00
  265                   0.00    155.44     67.35      0.00
  267                   0.00    155.90     58.45      0.00
  269                   0.00    154.58     66.98      0.00
  271                   0.00    153.10     63.74      0.00
  273                   0.00    146.73     60.11      0.00
  275                   0.00    145.89     58.88      0.00
  River            -12929.88    220.00      0.00      0.00 Reservoir
  Lake              -3307.91    167.00      0.00    100.00 Reservoir
  1                  1176.83    148.83      7.33      0.00 Tank
  2                   164.68    137.94      9.29      0.00 Tank
  3                  3586.00    161.38     14.03      0.00 Tank
  
  Link Results at 3:00 Hrs:
  ----------------------------------------------------------------------
  Link                  Flow  VelocityUnit Headloss    Status
  ID                     GPM       fps    ft/Kft
  ----------------------------------------------------------------------
  20                -3586.00      0.15      0.00      Open
  40                -1176.83      0.05      0.00      Open
  50                 -164.68      0.01      0.00      Open
  60                12929.88      9.17      8.64      Open
  101                3307.91      4.17      4.39      Open
  103                1770.64      2.83      1.80      Open
  105                1263.74      3.58      3.91      Open


  Page 21                                       EPANET Example Network 3
  Link Results at 3:00 Hrs: (continued)
  ----------------------------------------------------------------------
  Link                  Flow  VelocityUnit Headloss    Status
  ID                     GPM       fps    ft/Kft
  ----------------------------------------------------------------------
  107                 406.20      1.15      0.48      Open
  109                1578.84      2.52      1.45      Open
  111                1245.62      3.53      3.81      Open
  112                 435.35      1.24      0.54      Open
  113                 710.77      2.02      1.35      Open
  114                 254.28      1.62      1.45      Open
  115                 327.52      2.09      2.31      Open
  116                 936.24      2.66      2.24      Open
  117                -662.60      1.88      1.18      Open
  119                -437.14      1.24      0.55      Open
  120                -283.99      0.81      0.25      Open
  121                  89.07      0.25      0.03      Open
  122                 228.03      1.46      1.18      Open
  123                8425.90      3.82      1.30      Open
  125               12929.88      5.87      2.88      Open
  129                4216.00      2.99      1.24      Open
  131                3952.43      2.80      1.10      Open
  133               -3586.00      3.66      2.24      Open
  135                 341.00      0.24      0.01      Open
  137                  61.56      0.10      0.00      Open
  145                 279.44      1.78      1.72      Open
  147                 270.95      1.73      1.63      Open
  149                -628.93      4.01      7.74      Open
  151                -620.00      3.96      7.54      Open
  153                 372.16      1.06      0.41      Open
  155                 411.94      1.17      0.49      Open
  159                -424.26      1.20      0.52      Open
  161                -463.24      2.96      4.39      Open
  163                -134.31      0.38      0.06      Open
  169                 197.91      1.26      0.91      Open
  171                 536.98      1.52      0.80      Open
  173                7919.28      3.59      1.16      Open
  175                7844.70      3.56      1.14      Open
  177                7785.20      3.53      1.12      Open
  179                7830.43      3.55      1.14      Open
  180                   3.74      0.01      0.00      Open
  181                   3.74      0.01      0.00      Open
  183                7919.10      3.59      1.16      Open
  185                 -20.97      0.13      0.01      Open
  186                 566.46      3.62      6.38      Open
  187                7593.28      3.45      1.07      Open
  189                5293.89      2.40      0.55      Open
  191               -2242.74      1.59      0.39      Open
  193               -1719.00      1.22      0.24      Open
  195                 747.76      2.12      1.48      Open
  197                 664.00      1.88      1.19      Open
  199                -512.83      1.45      0.74      Open


  Page 22                                       EPANET Example Network 3
  Link Results at 3:00 Hrs: (continued)
  ----------------------------------------------------------------------
  Link                  Flow  VelocityUnit Headloss    Status
  ID                     GPM       fps    ft/Kft
  ----------------------------------------------------------------------
  201               -1176.83      3.34      3.43      Open
  202                 658.59      4.20      8.43      Open
  203                 129.06      0.82      0.41      Open
  204                 658.59      1.87      1.17      Open
  205                 566.46      1.61      0.88      Open
  207                 641.90      1.82      1.12      Open
  209                 -84.29      0.54      0.19      Open
  211                 304.86      0.86      0.28      Open
  213                 650.76      1.85      1.14      Open
  215                 632.17      1.79      1.08      Open
  217                 -27.42      0.08      0.00      Open
  219                  67.98      0.19      0.02      Open
  221                 -67.98      0.43      0.13      Open
  223                 741.27      2.10      1.46      Open
  225                 765.81      2.17      1.55      Open
  229                5293.89      3.75      1.63      Open
  231                4901.49      3.48      1.41      Open
  233                4582.00      3.25      1.45      Open
  235                 220.58      0.63      0.15      Open
  237                 662.06      1.88      1.18      Open
  238                 940.38      2.67      2.26      Open
  239                 378.24      1.07      0.42      Open
  240                 940.38      2.67      2.26      Open
  241                 940.38      2.67      2.26      Open
  243                 939.13      1.50      0.56      Open
  245                 433.96      0.69      0.13      Open
  247                 259.96      0.41      0.05      Open
  249                 127.21      0.20      0.01      Open
  251                  59.50      0.12      0.01      Open
  257                  32.83      0.09      0.00      Open
  261                 153.92      0.98      0.57      Open
  263                  23.73      0.07      0.00      Open
  269                 492.68      1.40      0.68      Open
  271                 -37.77      0.24      0.04      Open
  273                 507.98      1.44      0.72      Open
  275                 170.07      0.48      0.10      Open
  277                   6.25      0.02      0.00      Open
  281                 163.82      0.67      0.22      Open
  283                 273.67      0.78      0.23      Open
  285                -132.45      0.38      0.06      Open
  287                 194.92      0.80      0.30      Open
  289                -164.68      0.67      0.22      Open
  291                  78.51      0.32      0.06      Open
  293                -106.43      0.68      0.29      Open
  295                 141.22      0.40      0.07      Open
  297                -145.03      0.93      0.51      Open
  299                 -95.14      0.61      0.23      Open


  Page 23                                       EPANET Example Network 3
  Link Results at 3:00 Hrs: (continued)
  ----------------------------------------------------------------------
  Link                  Flow  VelocityUnit Headloss    Status
  ID                     GPM       fps    ft/Kft
  ----------------------------------------------------------------------
  301                 -95.14      0.61      0.23      Open
  303                 -49.89      0.32      0.07      Open
  305                -517.57      1.47      0.75      Open
  307                -567.46      1.61      0.89      Open
  309                -105.98      0.68      0.29      Open
  311                 738.15      2.09      1.44      Open
  313                  80.84      0.23      0.02      Open
  315               -2466.76      1.75      0.46      Open
  317                 122.99      0.79      0.38      Open
  319                  97.59      0.28      0.03      Open
  321                7813.12      3.55      1.13      Open
  323                 255.25      0.72      0.20      Open
  325                 224.02      1.43      1.14      Open
  329               12929.88      5.87      2.91      Open
  330                   0.00      0.00      0.00    Closed
  333                   0.00      0.00      0.00      Open
  10                 3307.91      0.00    -74.72      Open Pump
  335               12929.88      0.00    -95.45      Open Pump
  
  Node Results at 4:00 Hrs:
  ----------------------------------------------------------------------
  Node                Demand      Head  Pressure   Quality
  ID                     GPM        ft       psi   percent
  ----------------------------------------------------------------------
  10                    0.00    244.31     42.16    100.00
  15                  620.00    136.89     45.45      0.00
  20                    0.00    162.74     14.62      0.00
  35                 1791.00    157.83     62.97      0.00
  40                    0.00    150.49      8.05     16.76
  50                    0.00    138.61      9.58      0.00
  60                    0.00    209.57     90.81      0.00
  601                   0.00    306.26    132.70      0.00
  61                    0.00    306.26    132.70      0.00
  101                 144.36    187.67     63.12    100.00
  103                 101.23    185.48     61.74    100.00
  105                 102.88    176.88     64.29    100.00
  107                  41.53    176.18     66.81    100.00
  109                 175.86    179.80     69.11    100.00
  111                 107.87    170.38     69.49     97.83
  113                  15.21    167.75     71.82     96.09
  115                  39.60    170.71     67.90     91.61
  117                  89.46    171.11     68.25     85.32
  119                 133.86    169.89     72.74      0.78
  120                   0.00    170.71     73.97     26.11
  121                  31.64    172.05     75.42      0.00
  123                   0.00    176.28     71.62      0.00
  125                  34.66    170.49     69.11      0.00


  Page 24                                       EPANET Example Network 3
  Node Results at 4:00 Hrs: (continued)
  ----------------------------------------------------------------------
  Node                Demand      Head  Pressure   Quality
  ID                     GPM        ft       psi   percent
  ----------------------------------------------------------------------
  127                  13.42    165.42     47.41      0.00
  129                   0.00    165.42     49.58      0.00
  131                  32.49    165.41     69.07      0.00
  139                   4.48    162.28     56.88      0.00
  141                   7.49    160.03     67.61      0.00
  143                   4.71    149.33     66.65      0.00
  145                  21.00    161.75     69.66      0.00
  147                   6.50    162.94     62.59      0.00
  149                  20.57    163.43     63.88      0.00
  151                 109.80    167.87     58.22      0.00
  153                  33.57    167.93     44.08      0.00
  157                  39.36    167.60     66.94      0.26
  159                  31.40    164.42     68.64      0.00
  161                  12.01    162.26     68.57      0.00
  163                   7.16    161.78     67.93      0.00
  164                   0.00    161.78     67.93      0.00
  166                   1.98    161.78     70.97      0.00
  167                  11.07    159.76     71.39      0.03
  169                   0.00    159.76     71.39      0.20
  171                  29.90    158.37     70.35      0.04
  173                   0.00    158.34     70.34      0.01
  177                  44.21    157.77     64.89      0.00
  179                   0.00    157.69     64.86     21.01
  181                   0.00    157.84     64.93      0.00
  183                   0.00    157.93     63.66     53.49
  184                   0.00    157.09     61.14     22.99
  185                  19.49    157.88     61.48     45.00
  187                   0.00    159.88     63.86     77.06
  189                  82.02    159.68     67.46     64.94
  191                  62.24    163.44     59.99     83.94
  193                  54.20    163.44     63.02     91.54
  195                   0.00    163.41     64.09     68.37
  197                  12.95    165.42     61.71     94.60
  199                  90.68    152.25     66.83      0.00
  201                  33.90    151.38     65.55      0.00
  203                4531.00    151.21     64.65      0.00
  204                   0.00    159.18     59.87     73.51
  205                  49.67    152.14     56.82      0.00
  206                   0.00    149.64     64.41      0.00
  207                  52.74    150.74     61.42      0.00
  208                   0.00    148.40     57.37      0.00
  209                   0.66    146.25     64.24      0.00
  211                   6.59    145.52     60.02      0.00
  213                  10.59    145.44     59.99      0.00
  215                  70.06    145.37     59.96      0.00
  217                  18.41    145.37     60.39      0.00
  219                  31.40    145.36     61.25      0.00


  Page 25                                       EPANET Example Network 3
  Node Results at 4:00 Hrs: (continued)
  ----------------------------------------------------------------------
  Node                Demand      Head  Pressure   Quality
  ID                     GPM        ft       psi   percent
  ----------------------------------------------------------------------
  225                  17.33    145.36     59.52      0.00
  229                  48.78    143.58     57.66      0.00
  231                  12.52    143.58     60.05      0.00
  237                  11.86    143.26     56.01      0.00
  239                  33.90    142.50     56.11      0.00
  241                   0.00    142.49     56.11      0.00
  243                   3.30    142.49     55.68      0.00
  247                  53.49    142.25     53.84      0.00
  249                   0.00    142.25     53.84      0.00
  251                  18.36    141.97     48.52      0.00
  253                  41.44    140.60     45.32      0.00
  255                  30.70    140.62     49.23      0.00
  257                   0.00    171.43     66.92     94.23
  259                   0.00    171.58     63.51    100.00
  261                   0.00    171.73     74.41    100.00
  263                   0.00    172.17     74.60    100.00
  265                   0.00    160.44     69.52      0.47
  267                   0.00    161.28     60.78     81.11
  269                   0.00    159.68     69.19      0.00
  271                   0.00    157.99     65.86      0.00
  273                   0.00    152.16     62.46      0.00
  275                   0.00    151.32     61.24      0.00
  River            -12789.79    220.00      0.00      0.00 Reservoir
  Lake              -3139.84    167.00      0.00    100.00 Reservoir
  1                  1600.38    150.49      8.05      0.00 Tank
  2                   569.30    138.61      9.58      0.00 Tank
  3                  4501.38    162.74     14.62      0.00 Tank
  
  Link Results at 4:00 Hrs:
  ----------------------------------------------------------------------
  Link                  Flow  VelocityUnit Headloss    Status
  ID                     GPM       fps    ft/Kft
  ----------------------------------------------------------------------
  20                -4501.38      0.19      0.00      Open
  40                -1600.38      0.07      0.00      Open
  50                 -569.30      0.02      0.00      Open
  60                12789.79      9.07      8.47      Open
  101                3139.84      3.96      3.99      Open
  103                1673.92      2.67      1.62      Open
  105                1321.56      3.75      4.25      Open
  107                 405.13      1.15      0.48      Open
  109                1572.68      2.51      1.44      Open
  111                1396.82      3.96      4.71      Open
  112                 307.79      0.87      0.29      Open
  113                 771.15      2.19      1.57      Open
  114                 257.60      1.64      1.48      Open
  115                 363.60      2.32      2.80      Open


  Page 26                                       EPANET Example Network 3
  Link Results at 4:00 Hrs: (continued)
  ----------------------------------------------------------------------
  Link                  Flow  VelocityUnit Headloss    Status
  ID                     GPM       fps    ft/Kft
  ----------------------------------------------------------------------
  116                1013.54      2.88      2.60      Open
  117                -813.55      2.31      1.73      Open
  119                -241.38      0.68      0.18      Open
  120                -648.27      1.84      1.14      Open
  121                -261.84      0.74      0.21      Open
  122                 165.55      1.06      0.65      Open
  123                7634.33      3.47      1.08      Open
  125               12789.78      5.81      2.82      Open
  129                4958.27      3.52      1.68      Open
  131                4771.01      3.38      1.56      Open
  133               -4501.38      4.60      3.41      Open
  135                 256.21      0.18      0.01      Open
  137                  32.49      0.05      0.00      Open
  145                 223.72      1.43      1.14      Open
  147                 219.24      1.40      1.10      Open
  149                -624.71      3.99      7.64      Open
  151                -620.00      3.96      7.54      Open
[...]
  186                 279.49      1.78      1.72      Open
  187                6213.30      2.82      0.74      Open
  189                4870.75      2.21      0.47      Open
  191               -1276.86      0.91      0.14      Open
  193               -1668.00      1.18      0.22      Open
  195                -283.59      0.80      0.25      Open
  197                -380.73      1.08      0.42      Open
  199                 320.68      0.91      0.31      Open
  201                 701.41      1.99      1.31      Open
  202                 549.90      3.51      6.03      Open
  203                 313.24      2.00      2.13      Open
  204                 549.90      1.56      0.84      Open
  205                 279.49      0.79      0.24      Open
  207                  -7.44      0.02      0.00      Open
  209                 229.07      1.46      1.19      Open
  211                 614.56      1.74      1.03      Open
  213                  50.42      0.14      0.01      Open
  215                -105.14      0.30      0.04      Open
  217                -318.83      0.90      0.31      Open
  219                -262.29      0.74      0.21      Open
  221                 262.29      1.67      1.53      Open
  223                -131.64      0.37      0.06      Open


  Page 119                                      EPANET Example Network 3
  Link Results at 23:00 Hrs: (continued)
  ----------------------------------------------------------------------
  Link                  Flow  VelocityUnit Headloss    Status
  ID                     GPM       fps    ft/Kft
  ----------------------------------------------------------------------
  225                -103.18      0.29      0.04      Open
  229                4870.75      3.45      1.40      Open
  231                4528.02      3.21      1.22      Open
  233                4480.00      3.18      1.39      Open
  235                 143.47      0.41      0.07      Open
  237                 471.20      1.34      0.63      Open
  238                 441.86      1.25      0.56      Open
  239                  86.54      0.25      0.03      Open
  240                 441.86      1.25      0.56      Open
  241                 441.86      1.25      0.56      Open
  243                 440.40      0.70      0.14      Open
  245                 366.22      0.58      0.10      Open
  247                 301.49      0.48      0.07      Open
  249                 147.53      0.24      0.02      Open
  251                  69.00      0.14      0.01      Open
  257                  38.08      0.11      0.01      Open
  261                  41.45      0.26      0.05      Open
  263                  27.52      0.08      0.00      Open
  269                  59.70      0.17      0.01      Open
  271                  93.25      0.60      0.23      Open
  273                 -59.61      0.17      0.01      Open
  275                 -45.77      0.13      0.01      Open
  277                   7.25      0.02      0.00      Open
  281                 -53.01      0.22      0.03      Open
  283                 -88.34      0.25      0.03      Open
  285                  15.88      0.05      0.00      Open
  287                -186.43      0.76      0.27      Open
  289                 457.74      1.87      1.45      Open
  291                  91.05      0.37      0.07      Open
  293                 112.81      0.72      0.32      Open
  295                 -72.46      0.21      0.02      Open
  297                 495.01      3.16      4.97      Open
  299                 238.02      1.52      1.28      Open
  301                 238.02      1.52      1.28      Open
  303                 256.99      1.64      1.48      Open
  305                 158.73      0.45      0.08      Open
  307                 415.72      1.18      0.50      Open
  309                 216.85      1.38      1.08      Open
  311                -322.00      0.91      0.31      Open
  313                 507.00      1.44      0.72      Open
  315               -1384.41      0.98      0.16      Open
  317                 113.02      0.72      0.32      Open
  319                  30.45      0.09      0.00      Open
  321                7069.03      3.21      0.94      Open
  323                 -26.48      0.08      0.00      Open
  325                 107.56      0.69      0.29      Open
  329               13205.64      5.99      3.03      Open


  Page 120                                      EPANET Example Network 3
  Link Results at 23:00 Hrs: (continued)
  ----------------------------------------------------------------------
  Link                  Flow  VelocityUnit Headloss    Status
  ID                     GPM       fps    ft/Kft
  ----------------------------------------------------------------------
  330                   0.00      0.00      0.00    Closed
  333                   0.00      0.00      0.00      Open
  10                    0.00      0.00      0.00    Closed Pump
  335               13205.64      0.00    -93.02      Open Pump
  
  Node Results at 24:00 Hrs:
  ----------------------------------------------------------------------
  Node                Demand      Head  Pressure   Quality
  ID                     GPM        ft       psi   percent
  ----------------------------------------------------------------------
  10                    0.00    147.69      0.30    100.00
  15                  620.00    127.99     41.59      0.00
  20                    0.00    160.27     13.55      0.00
  35                 1637.00    147.95     58.69      1.34
  40                    0.00    147.69      6.84      7.87
  50                    0.00    139.46      9.95      0.00
  60                    0.00    209.12     90.61      0.00
  601                   0.00    303.19    131.37      0.00
  61                    0.00    303.19    131.37      0.00
  101                 254.53    147.69     45.80      0.00
  103                 178.49    147.66     45.35      0.02
  105                 181.40    149.00     52.21      0.00
  107                  73.22    148.99     55.02      0.00
  109                 310.08    147.66     55.19      0.06
  111                 190.20    148.28     59.92      0.27
  113                  26.81    148.32     63.40      3.27
  115                  69.81    149.09     58.53      0.00
  117                 157.73    152.19     60.05      0.00
  119                 236.01    159.69     68.33      0.00
  120                   0.00    157.27     68.14      0.00
  121                  55.78    163.15     71.56      0.00
  123                   0.00    167.56     67.84      0.00
  125                  61.10    162.58     65.68      0.00
  127                  23.66    160.97     45.48      0.00
  129                   0.00    160.96     47.64      0.00
  131                  57.28    160.94     67.13      0.00
  139                   7.89    155.27     53.85      0.00
  141                  13.20    151.24     63.80      0.00
  143                   8.31    140.42     62.79      0.00
  145                  37.02    152.45     65.62      1.87
  147                  11.46    153.37     58.44      0.00
  149                  36.27    153.76     59.69      0.00
  151                 193.60    157.59     53.77      0.00
  153                  59.19    157.69     39.64      0.00
  157                  69.40    157.26     62.46      0.00
  159                  55.37    153.91     64.09      0.00
  161                  21.17    151.64     63.97      0.00


  Page 121                                      EPANET Example Network 3
  Node Results at 24:00 Hrs: (continued)
  ----------------------------------------------------------------------
  Node                Demand      Head  Pressure   Quality
  ID                     GPM        ft       psi   percent
  ----------------------------------------------------------------------
  163                  12.62    151.18     63.34      0.00
  164                   0.00    151.18     63.34      7.23
  166                   3.48    151.18     66.37      0.00
  167                  19.51    149.31     66.86      0.00
  169                   0.00    149.31     66.86      0.00
  171                  52.72    148.23     65.96      0.00
  173                   0.00    148.20     65.95      0.00
  177                  77.95    147.94     60.64      7.87
  179                   0.00    147.94     60.64      7.87
  181                   0.00    147.95     60.64      1.34
  183                   0.00    147.94     59.34      7.87
  184                   0.00    146.58     56.58      4.47
  185                  34.37    147.21     56.85      4.47
  187                   0.00    147.94     58.69      0.66
  189                 144.61    148.27     62.51      0.00
  191                 109.75    148.22     53.39      0.00
  193                  95.56    148.32     56.47      0.00
  195                   0.00    148.39     57.58      0.00
  197                  22.83    148.23     54.26      0.59
  199                 159.89    142.64     62.67      0.00
  201                  59.78    141.86     61.43      0.02
  203                4439.00    141.70     60.53      0.02
  204                   0.00    147.69     54.89      0.66
  205                  87.58    142.59     52.68      3.13
  206                   0.00    141.31     60.79      7.58
  207                  92.98    141.72     57.51      7.71
  208                   0.00    140.83     54.09      7.36
  209                   1.17    140.01     61.53      6.22
  211                  11.62    139.73     57.51      5.51
  213                  18.68    139.65     57.48      2.88
  215                 123.53    139.46     57.39     51.61
  217                  32.45    139.44     57.82     77.90
  219                  55.37    139.43     58.68     76.44
  225                  30.55    139.43     56.95     76.41
  229                  86.00    139.34     55.83     43.28
  231                  22.08    139.34     58.21     76.80
  237                  20.92    139.37     54.32     68.44
  239                  59.78    139.32     54.73     42.40
  241                   0.00    139.32     54.73      0.01
  243                   5.82    139.32     54.30      0.00
  247                  94.31    139.31     52.56      0.00
  249                   0.00    139.31     52.56     63.71
  251                  32.37    139.31     47.36      0.00
  253                  73.06    139.26     44.74      0.00
  255                  54.12    139.31     48.66      0.00
  257                   0.00    154.15     59.43      0.00
  259                   0.00    153.72     55.77      0.00


  Page 122                                      EPANET Example Network 3
  Node Results at 24:00 Hrs: (continued)
  ----------------------------------------------------------------------
  Node                Demand      Head  Pressure   Quality
  ID                     GPM        ft       psi   percent
  ----------------------------------------------------------------------
  261                   0.00    152.14     65.92      0.00
  263                   0.00    151.98     65.85      0.00
  265                   0.00    149.90     64.95      0.00
  267                   0.00    148.34     55.18      0.26
  269                   0.00    148.66     64.42      0.00
  271                   0.00    148.03     61.54      0.00
  273                   0.00    142.59     58.32      0.00
  275                   0.00    141.86     57.13      0.03
  River            -13087.22    220.00      0.00      0.00 Reservoir
  Lake                  0.00    167.00      0.00    100.00 Reservoir
  1                   262.50    147.69      6.84      7.87 Tank
  2                  -140.04    139.46      9.95      0.00 Tank
  3                  2184.30    160.27     13.55      0.00 Tank
  
  Link Results at 24:00 Hrs:
  ----------------------------------------------------------------------
  Link                  Flow  VelocityUnit Headloss    Status
  ID                     GPM       fps    ft/Kft
  ----------------------------------------------------------------------
  20                -2184.30      0.09      0.00      Open
  40                 -262.50      0.01      0.00      Open
  50                  140.04      0.01      0.00      Open
  60                13087.22      9.28      8.84      Open
  101                   0.00      0.00      0.00      Open
  103                 167.59      0.27      0.02      Open
  105                -422.12      1.20      0.51      Open
  107                  31.99      0.09      0.00      Open
  109                 -10.90      0.02      0.00      Open
  111                -320.97      0.91      0.31      Open
  112                 497.32      1.41      0.70      Open
  113                 -82.10      0.23      0.02      Open
  114                 123.98      0.79      0.38      Open
  115                 -41.23      0.26      0.05      Open
  116                  15.07      0.04      0.00      Open
  117                 635.51      1.80      1.09      Open
  119                -732.35      2.08      1.42      Open
  120                1157.64      3.28      3.32      Open
  121                1038.00      2.94      2.72      Open
  122                 367.94      2.35      2.87      Open
  123                9812.39      4.45      1.73      Open
  125               13087.22      5.94      2.94      Open
  129                2851.10      2.02      0.60      Open
  131                2573.55      1.83      0.50      Open
  133               -2184.30      2.23      0.89      Open
  135                 365.58      0.26      0.01      Open
  137                  57.28      0.09      0.00      Open
  145                 308.30      1.97      2.07      Open


  Page 123                                      EPANET Example Network 3
  Link Results at 24:00 Hrs: (continued)
  ----------------------------------------------------------------------
  Link                  Flow  VelocityUnit Headloss    Status
  ID                     GPM       fps    ft/Kft
  ----------------------------------------------------------------------
  147                 300.41      1.92      1.97      Open
  149                -628.31      4.01      7.72      Open
  151                -620.00      3.96      7.54      Open
  153                 341.10      0.97      0.35      Open
  155                 378.12      1.07      0.42      Open
  159                -389.58      1.11      0.44      Open
  161                -425.86      2.72      3.76      Open
  163                -157.26      0.45      0.08      Open
  169                 216.45      1.38      1.07      Open
  171                 462.19      1.31      0.61      Open
  173                7956.54      3.61      1.17      Open
  175                7887.14      3.58      1.15      Open
  177                7831.77      3.55      1.14      Open
  179                7559.70      3.43      1.06      Open
  180                   3.48      0.01      0.00      Open
  181                   3.48      0.01      0.00      Open
  183                7336.64      3.33      1.01      Open
  185                 -19.51      0.12      0.01      Open
  186                 347.44      2.22      2.58      Open
  187                6712.10      3.05      0.85      Open
  189                4855.79      2.20      0.47      Open
  191               -1803.59      1.28      0.26      Open
  193               -1637.00      1.16      0.22      Open
  195                 308.73      0.88      0.29      Open
  197                 230.78      0.65      0.17      Open
  199                 -31.72      0.09      0.00      Open
  201                -262.50      0.74      0.21      Open
  202                 565.23      3.61      6.35      Open
  203                 252.15      1.61      1.42      Open
  204                 565.23      1.60      0.88      Open
  205                 347.44      0.99      0.36      Open
  207                 283.88      0.81      0.25      Open
  209                 165.61      1.06      0.65      Open
  211                 605.03      1.72      1.00      Open
  213                 181.84      0.52      0.11      Open
  215                 131.20      0.37      0.06      Open
  217                -246.17      0.70      0.19      Open
  219                -250.90      0.71      0.20      Open
  221                 250.90      1.60      1.41      Open
  223                  45.42      0.13      0.01      Open
  225                  68.25      0.19      0.02      Open
  229                4855.79      3.44      1.39      Open
  231                4553.07      3.23      1.23      Open
  233                4439.00      3.15      1.37      Open
  235                 142.83      0.41      0.07      Open
  237                 506.39      1.44      0.72      Open
  238                 581.79      1.65      0.93      Open


  Page 124                                      EPANET Example Network 3
  Link Results at 24:00 Hrs: (continued)
  ----------------------------------------------------------------------
  Link                  Flow  VelocityUnit Headloss    Status
  ID                     GPM       fps    ft/Kft
  ----------------------------------------------------------------------
  239                 168.38      0.48      0.09      Open
  240                 581.79      1.65      0.93      Open
  241                 581.79      1.65      0.93      Open
  243                 580.62      0.93      0.23      Open
  245                 333.18      0.53      0.08      Open
  247                 241.91      0.39      0.05      Open
  249                 118.38      0.19      0.01      Open
  251                  55.37      0.12      0.01      Open
  257                  30.55      0.09      0.00      Open
  261                  72.59      0.46      0.14      Open
  263                  22.08      0.06      0.00      Open
  269                 235.83      0.67      0.17      Open
  271                  35.50      0.23      0.04      Open
  273                 179.41      0.51      0.11      Open
  275                  48.42      0.14      0.01      Open
  277                   5.82      0.02      0.00      Open
  281                  42.61      0.17      0.02      Open
  283                  71.21      0.20      0.02      Open
  285                 -48.23      0.14      0.01      Open
  287                  -3.47      0.01      0.00      Open
  289                 140.04      0.57      0.16      Open
  291                  73.06      0.30      0.05      Open
  293                   9.39      0.06      0.00      Open
  295                  22.98      0.07      0.00      Open
  297                 487.59      3.11      4.83      Open
  299                 234.26      1.50      1.24      Open
  301                 234.26      1.50      1.24      Open
  303                 253.33      1.62      1.44      Open
  305                 147.92      0.42      0.07      Open
  307                 401.25      1.14      0.47      Open
  309                 206.95      1.32      0.99      Open
  311                 -75.75      0.21      0.02      Open
  313                 462.89      1.31      0.61      Open
  315               -1945.73      1.38      0.30      Open
  317                 114.09      0.73      0.33      Open
  319                  28.74      0.08      0.00      Open
  321                7543.59      3.42      1.06      Open
  323                  54.29      0.15      0.01      Open
  325                 142.14      0.91      0.49      Open
  329               13087.22      5.94      2.98      Open
  330                   0.00      0.00      0.00    Closed
  333                   0.00      0.00      0.00      Open
  10                    0.00      0.00      0.00    Closed Pump
  335               13087.22      0.00    -94.07      Open Pump
  
