  Page 1                                    Mon Oct 05 20:58:05 2015

  ******************************************************************
  *                           E P A N E T                          *
  *                   Hydraulic and Water Quality                  *
  *                   Analysis for Pipe Networks                   *
  *                         Version 2.00.12                        *
  ******************************************************************
  
  EPANET-MSX Example Network 
   
      Input Data File ................... example.inp
      Number of Junctions................ 4
      Number of Reservoirs............... 1
      Number of Tanks ................... 0
      Number of Pipes ................... 5
      Number of Pumps ................... 0
      Number of Valves .................. 0
      Headloss Formula .................. Hazen-Williams
      Hydraulic Timestep ................ 1.00 hrs
      Hydraulic Accuracy ................ 0.001000
      Status Check Frequency ............ 2
      Maximum Trials Checked ............ 10
      Damping Limit Threshold ........... 0.000000
      Maximum Trials .................... 200
      Quality Analysis .................. None
      Specific Gravity .................. 1.00
      Relative Kinematic Viscosity ...... 1.00
      Relative Chemical Diffusivity ..... 1.00
      Demand Multiplier ................. 1.00
      Total Duration .................... 48.00 hrs
      Reporting Criteria:
         No Nodes
         No Links
   
  Analysis begun Mon Oct 05 20:58:05 2015

  Processing MSX input file example.msx
  
  
Page 1                                               EPANET-MSX 1.1
  
  ******************************************************************
  *                      E P A N E T  -  M S X                     *
  *                   Multi-Species Water Quality                  *
  *                   Analysis for Pipe  Networks                  *
  *                           Version 1.1                          *
  ******************************************************************
  
  Arsenic Oxidation/Adsorption Example

  
  <<< Node C >>>
  
  Time            AS5       AStot       NH2CL
  hr:min         UG/L        UG/L        MG/L
  -------  ----------  ----------  ----------
     0:00        0.00        0.00        0.00
     2:00        0.00        0.00        0.00
     4:00        0.00        0.00        0.00
     6:00        0.00        0.00        0.00
     8:00        0.00        0.00        1.10
    10:00        9.17        9.17        1.10
    12:00        9.17        9.17        1.10
    14:00        9.17        9.17        1.10
    16:00        9.17        9.17        1.10
    18:00        9.17        9.17        1.10
    20:00        9.17        9.17        1.10
    22:00        9.17        9.17        1.10
    24:00        9.17        9.17        1.10
    26:00        9.17        9.17        1.10
    28:00        9.17        9.17        1.10
    30:00        9.17        9.17        1.10
    32:00        9.17        9.17        1.10
    34:00        9.17        9.17        1.11
    36:00        9.17        9.17        1.11
    38:00       10.03       10.03        1.11
    40:00       10.03       10.03        1.11
    42:00       10.03       10.03        1.11
    44:00       10.03       10.03        1.11
    46:00       10.03       10.03        1.11
    48:00       10.03       10.03        1.11
  
  <<< Node D >>>
  
  Time            AS5       AStot       NH2CL
  hr:min         UG/L        UG/L        MG/L
  -------  ----------  ----------  ----------
     0:00        0.00        0.00        0.00
     2:00        0.00        0.00        0.00
     4:00        0.00        0.00        0.00
     6:00        0.00        0.00        0.00
     8:00        0.00        0.00        0.00
    10:00        0.00        0.00        0.00
    12:00        0.00        0.00        0.00
    14:00        0.00        0.00        0.00
    16:00        0.00        0.00        0.00
    18:00        0.00        0.00        0.00
    20:00        0.00        0.00        0.00
    22:00        0.00        0.00        0.00
    24:00        0.00        0.00        0.24
    26:00        0.00        0.00        0.24
    28:00        9.17        9.17        0.24
    30:00        9.17        9.17        0.24
    32:00        9.17        9.17        0.24
    34:00        9.17        9.17        0.24
    36:00        9.17        9.17        0.24
    38:00        9.17        9.17        0.24
    40:00        9.17        9.17        0.24
    42:00        9.17        9.17        0.24
    44:00        9.17        9.17        0.24
    46:00        9.17        9.17        0.24
    48:00        9.17        9.17        0.24
  
 
  
  Analysis ended Mon Oct 05 20:58:05 2015
