  Page 1                                    Fri Jun 19 11:39:29 2015

  ******************************************************************
  *                           E P A N E T                          *
  *                   Hydraulic and Water Quality                  *
  *                   Analysis for Pipe Networks                   *
  *                         Version 2.00.12                        *
  ******************************************************************
  
  Analysis begun Fri Jun 19 11:39:29 2015

   
  Hydraulic Status:
  -----------------------------------------------------------------------
     0:00:00: Balanced after 4 trials
     0:00:00: Reservoir 9 is emptying
     0:00:00: Tank 2 is filling at 120.00 ft
   
     1:00:00: Balanced after 2 trials
   
     2:00:00: Balanced after 3 trials
   
     3:00:00: Balanced after 2 trials
   
     4:00:00: Balanced after 3 trials
   
     5:00:00: Balanced after 2 trials
   
     6:00:00: Balanced after 2 trials
   
     7:00:00: Balanced after 1 trials
   
     8:00:00: Balanced after 2 trials
   
     9:00:00: Balanced after 2 trials
   
    10:00:00: Balanced after 2 trials
   
    11:00:00: Balanced after 2 trials
   
    12:00:00: Balanced after 3 trials
   
    12:32:34: Pump 9 changed by Tank 2 control
    12:32:34: Balanced after 4 trials
    12:32:34: Reservoir 9 is closed
    12:32:34: Tank 2 is emptying at 140.00 ft
    12:32:34: Pump 9 changed from open to closed
   
    13:00:00: Balanced after 1 trials
   
    14:00:00: Balanced after 2 trials
   
    15:00:00: Balanced after 1 trials
   
    16:00:00: Balanced after 2 trials
   
    17:00:00: Balanced after 1 trials
   
    18:00:00: Balanced after 2 trials
   
    19:00:00: Balanced after 1 trials
   
    20:00:00: Balanced after 2 trials
   
    21:00:00: Balanced after 1 trials
   
    22:00:00: Balanced after 2 trials
   
    22:41:30: Pump 9 changed by Tank 2 control
    22:41:30: Balanced after 15 trials
    22:41:30: Reservoir 9 is emptying
    22:41:30: Tank 2 is filling at 110.00 ft
    22:41:30: Pump 9 changed from closed to open
   
    23:00:00: Balanced after 2 trials
   
    24:00:00: Balanced after 3 trials
   
   
   
  Energy Usage:
  ----------------------------------------------------------------
             Usage   Avg.     Kw-hr      Avg.      Peak      Cost
  Pump      Factor Effic.     /Mgal        Kw        Kw      /day
  ----------------------------------------------------------------
  9          57.71  75.00    880.42     96.25     96.71      0.00
  ----------------------------------------------------------------
                                         Demand Charge:      0.00
                                         Total Cost:         0.00
   
   
  Link Results at 0:00:00 hrs:
  ----------------------------------------------
                       Flow  Velocity  Headloss
  Link                  gpm       fps   /1000ft
  ----------------------------------------------
  10                1866.18      2.35      1.82
  11                1234.21      2.57      2.87
  12                 129.34      0.53      0.23
  21                 191.16      0.78      0.47
  22                 120.66      0.34      0.08
  31                  40.81      0.46      0.32
  110               -766.18      0.97      0.35
  111                481.97      1.97      2.59
  112                188.70      0.54      0.19
  113                 29.34      0.19      0.04
  121                140.81      0.90      0.79
  122                 59.19      0.67      0.64
  9                 1866.18      0.00   -204.35  Pump
   
   
  Link Results at 1:00:00 hrs:
  ----------------------------------------------
                       Flow  Velocity  Headloss
  Link                  gpm       fps   /1000ft
  ----------------------------------------------
  10                1848.58      2.33      1.78
  11                1220.43      2.54      2.81
  12                 130.11      0.53      0.23
  21                 187.69      0.77      0.45
  22                 119.89      0.34      0.08
  31                  40.46      0.46      0.32
  110               -748.58      0.94      0.33
  111                478.15      1.95      2.55
  112                191.73      0.54      0.19
  113                 30.11      0.19      0.05
  121                140.46      0.90      0.78
  122                 59.54      0.68      0.65
  9                 1848.58      0.00   -206.77  Pump
   
   
  Link Results at 2:00:00 hrs:
  ----------------------------------------------
                       Flow  Velocity  Headloss
  Link                  gpm       fps   /1000ft
  ----------------------------------------------
  10                1837.46      2.32      1.76
  11                1164.40      2.43      2.58
  12                 172.96      0.71      0.39
  21                 150.84      0.62      0.30
  22                 127.04      0.36      0.09
  31                  42.22      0.48      0.34
  110               -517.46      0.65      0.17
  111                493.06      2.01      2.70
  112                293.98      0.83      0.43
  113                 52.96      0.34      0.13
  121                162.22      1.04      1.02
  122                 77.78      0.88      1.06
  9                 1837.46      0.00   -208.29  Pump
   
   
  Link Results at 3:00:00 hrs:
  ----------------------------------------------
                       Flow  Velocity  Headloss
  Link                  gpm       fps   /1000ft
  ----------------------------------------------
  10                1825.38      2.30      1.74
  11                1154.82      2.41      2.54
  12                 173.49      0.71      0.39
  21                 148.51      0.61      0.29
  22                 126.51      0.36      0.09
  31                  42.05      0.48      0.34
  110               -505.38      0.64      0.16
  111                490.57      2.00      2.68
  112                295.94      0.84      0.43
  113                 53.49      0.34      0.13
  121                162.05      1.03      1.02
  122                 77.95      0.88      1.07
  9                 1825.38      0.00   -209.92  Pump
   
   
  Link Results at 4:00:00 hrs:
  ----------------------------------------------
                       Flow  Velocity  Headloss
  Link                  gpm       fps   /1000ft
  ----------------------------------------------
  10                1819.86      2.29      1.73
  11                1100.06      2.29      2.32
  12                 215.82      0.88      0.59
  21                 114.27      0.47      0.18
  22                 134.18      0.38      0.10
  31                  45.52      0.52      0.39
  110               -279.86      0.35      0.05
  111                509.79      2.08      2.88
  112                394.39      1.12      0.74
  113                 75.82      0.48      0.25
  121                185.52      1.18      1.31
  122                 94.48      1.07      1.53
  9                 1819.86      0.00   -210.67  Pump
   
   
  Link Results at 5:00:00 hrs:
  ----------------------------------------------
                       Flow  Velocity  Headloss
  Link                  gpm       fps   /1000ft
  ----------------------------------------------
  10                1813.25      2.29      1.72
  11                1094.76      2.28      2.30
  12                 216.10      0.88      0.59
  21                 113.03      0.46      0.18
  22                 133.90      0.38      0.10
  31                  45.46      0.52      0.39
  110               -273.25      0.34      0.05
  111                508.49      2.08      2.86
  112                395.40      1.12      0.74
  113                 76.10      0.49      0.25
  121                185.46      1.18      1.31
  122                 94.54      1.07      1.53
  9                 1813.25      0.00   -211.56  Pump
   
   
  Link Results at 6:00:00 hrs:
  ----------------------------------------------
                       Flow  Velocity  Headloss
  Link                  gpm       fps   /1000ft
  ----------------------------------------------
  10                1813.13      2.29      1.72
  11                1041.79      2.17      2.10
  12                 257.81      1.05      0.81
  21                  81.35      0.33      0.10
  22                 142.19      0.40      0.11
  31                  49.99      0.57      0.47
  110                -53.13      0.07      0.00
  111                531.34      2.17      3.10
  112                490.85      1.39      1.10
  113                 97.81      0.62      0.40
  121                209.99      1.34      1.65
  122                110.01      1.25      2.02
  9                 1813.13      0.00   -211.58  Pump
   
   
  Link Results at 7:00:00 hrs:
  ----------------------------------------------
                       Flow  Velocity  Headloss
  Link                  gpm       fps   /1000ft
  ----------------------------------------------
  10                1811.87      2.28      1.72
  11                1040.76      2.17      2.09
  12                 257.86      1.05      0.81
  21                  81.13      0.33      0.10
  22                 142.14      0.40      0.11
  31                  49.98      0.57      0.47
  110                -51.87      0.07      0.00
  111                531.11      2.17      3.10
  112                491.04      1.39      1.10
  113                 97.86      0.62      0.40
  121                209.98      1.34      1.65
  122                110.02      1.25      2.02
  9                 1811.87      0.00   -211.75  Pump
   
   
  Link Results at 8:00:00 hrs:
  ----------------------------------------------
                       Flow  Velocity  Headloss
  Link                  gpm       fps   /1000ft
  ----------------------------------------------
  10                1804.29      2.27      1.71
  11                1087.56      2.27      2.27
  12                 216.48      0.88      0.59
  21                 111.35      0.45      0.17
  22                 133.52      0.38      0.10
  31                  45.38      0.51      0.39
  110               -264.29      0.33      0.05
  111                506.73      2.07      2.84
  112                396.78      1.13      0.74
  113                 76.48      0.49      0.25
  121                185.38      1.18      1.31
  122                 94.62      1.07      1.53
  9                 1804.29      0.00   -212.76  Pump
   
   
  Link Results at 9:00:00 hrs:
  ----------------------------------------------
                       Flow  Velocity  Headloss
  Link                  gpm       fps   /1000ft
  ----------------------------------------------
  10                1798.00      2.27      1.69
  11                1082.50      2.26      2.25
  12                 216.75      0.89      0.59
  21                 110.17      0.45      0.17
  22                 133.25      0.38      0.10
  31                  45.33      0.51      0.39
  110               -258.00      0.33      0.05
  111                505.50      2.06      2.83
  112                397.75      1.13      0.75
  113                 76.75      0.49      0.26
  121                185.33      1.18      1.31
  122                 94.67      1.07      1.53
  9                 1798.00      0.00   -213.60  Pump
   
   
  Link Results at 10:00:00 hrs:
  ----------------------------------------------
                       Flow  Velocity  Headloss
  Link                  gpm       fps   /1000ft
  ----------------------------------------------
  10                1785.48      2.25      1.67
  11                1123.12      2.34      2.41
  12                 175.24      0.72      0.40
  21                 140.83      0.58      0.27
  22                 124.76      0.35      0.09
  31                  41.53      0.47      0.33
  110               -465.48      0.59      0.14
  111                482.35      1.97      2.60
  112                302.41      0.86      0.45
  113                 55.24      0.35      0.14
  121                161.53      1.03      1.01
  122                 78.47      0.89      1.08
  9                 1785.48      0.00   -215.26  Pump
   
   
  Link Results at 11:00:00 hrs:
  ----------------------------------------------
                       Flow  Velocity  Headloss
  Link                  gpm       fps   /1000ft
  ----------------------------------------------
  10                1774.30      2.24      1.65
  11                1114.24      2.32      2.38
  12                 175.73      0.72      0.40
  21                 138.68      0.57      0.26
  22                 124.27      0.35      0.09
  31                  41.38      0.47      0.33
  110               -454.30      0.57      0.13
  111                480.06      1.96      2.57
  112                304.21      0.86      0.45
  113                 55.73      0.36      0.14
  121                161.38      1.03      1.01
  122                 78.62      0.89      1.09
  9                 1774.30      0.00   -216.73  Pump
   
   
  Link Results at 12:00:00 hrs:
  ----------------------------------------------
                       Flow  Velocity  Headloss
  Link                  gpm       fps   /1000ft
  ----------------------------------------------
  10                1757.04      2.22      1.62
  11                1148.60      2.39      2.51
  12                 134.16      0.55      0.24
  21                 169.69      0.69      0.37
  22                 115.84      0.33      0.08
  31                  38.75      0.44      0.29
  110               -657.04      0.83      0.26
  111                458.44      1.87      2.36
  112                207.40      0.59      0.22
  113                 34.16      0.22      0.06
  121                138.75      0.89      0.77
  122                 61.25      0.69      0.68
  9                 1757.04      0.00   -218.99  Pump
   
   
  Link Results at 13:00:00 hrs:
  ----------------------------------------------
                       Flow  Velocity  Headloss
  Link                  gpm       fps   /1000ft
  ----------------------------------------------
  10                  -0.00      0.00      0.00
  11                -358.36      0.75      0.29
  12                 188.57      0.77      0.46
  21                 -70.30      0.29      0.07
  22                  61.43      0.17      0.02
  31                  28.67      0.33      0.17
  110               1100.00      1.39      0.68
  111                208.36      0.85      0.55
  112                403.07      1.14      0.77
  113                 88.57      0.57      0.33
  121                128.67      0.82      0.67
  122                 71.33      0.81      0.91
  9                    0.00      0.00      0.00  Pump
   
   
  Link Results at 14:00:00 hrs:
  ----------------------------------------------
                       Flow  Velocity  Headloss
  Link                  gpm       fps   /1000ft
  ----------------------------------------------
  10                  -0.00      0.00      0.00
  11                -286.69      0.60      0.19
  12                 150.85      0.62      0.30
  21                 -56.24      0.23      0.05
  22                  49.15      0.14      0.02
  31                  22.93      0.26      0.11
  110                880.00      1.11      0.45
  111                166.69      0.68      0.36
  112                322.45      0.91      0.51
  113                 70.85      0.45      0.22
  121                102.93      0.66      0.44
  122                 57.07      0.65      0.60
  9                    0.00      0.00      0.00  Pump
   
   
  Link Results at 15:00:00 hrs:
  ----------------------------------------------
                       Flow  Velocity  Headloss
  Link                  gpm       fps   /1000ft
  ----------------------------------------------
  10                  -0.00      0.00      0.00
  11                -286.69      0.60      0.19
  12                 150.85      0.62      0.30
  21                 -56.24      0.23      0.05
  22                  49.15      0.14      0.02
  31                  22.93      0.26      0.11
  110                880.00      1.11      0.45
  111                166.69      0.68      0.36
  112                322.45      0.91      0.51
  113                 70.85      0.45      0.22
  121                102.93      0.66      0.44
  122                 57.07      0.65      0.60
  9                    0.00      0.00      0.00  Pump
   
   
  Link Results at 16:00:00 hrs:
  ----------------------------------------------
                       Flow  Velocity  Headloss
  Link                  gpm       fps   /1000ft
  ----------------------------------------------
  10                  -0.00      0.00      0.00
  11                -215.02      0.45      0.11
  12                 113.14      0.46      0.18
  21                 -42.18      0.17      0.03
  22                  36.86      0.10      0.01
  31                  17.20      0.20      0.07
  110                660.00      0.83      0.26
  111                125.02      0.51      0.21
  112                241.84      0.69      0.30
  113                 53.14      0.34      0.13
  121                 77.20      0.49      0.26
  122                 42.80      0.49      0.35
  9                    0.00      0.00      0.00  Pump
   
   
  Link Results at 17:00:00 hrs:
  ----------------------------------------------
                       Flow  Velocity  Headloss
  Link                  gpm       fps   /1000ft
  ----------------------------------------------
  10                  -0.00      0.00      0.00
  11                -215.02      0.45      0.11
  12                 113.14      0.46      0.18
  21                 -42.18      0.17      0.03
  22                  36.86      0.10      0.01
  31                  17.20      0.20      0.07
  110                660.00      0.83      0.26
  111                125.02      0.51      0.21
  112                241.84      0.69      0.30
  113                 53.14      0.34      0.13
  121                 77.20      0.49      0.26
  122                 42.80      0.49      0.35
  9                    0.00      0.00      0.00  Pump
   
   
  Link Results at 18:00:00 hrs:
  ----------------------------------------------
                       Flow  Velocity  Headloss
  Link                  gpm       fps   /1000ft
  ----------------------------------------------
  10                  -0.00      0.00      0.00
  11                -143.35      0.30      0.05
  12                  75.43      0.31      0.08
  21                 -28.12      0.11      0.01
  22                  24.57      0.07      0.00
  31                  11.47      0.13      0.03
  110                440.00      0.55      0.13
  111                 83.35      0.34      0.10
  112                161.23      0.46      0.14
  113                 35.43      0.23      0.06
  121                 51.47      0.33      0.12
  122                 28.53      0.32      0.17
  9                    0.00      0.00      0.00  Pump
   
   
  Link Results at 19:00:00 hrs:
  ----------------------------------------------
                       Flow  Velocity  Headloss
  Link                  gpm       fps   /1000ft
  ----------------------------------------------
  10                  -0.00      0.00      0.00
  11                -143.35      0.30      0.05
  12                  75.43      0.31      0.08
  21                 -28.12      0.11      0.01
  22                  24.57      0.07      0.00
  31                  11.47      0.13      0.03
  110                440.00      0.55      0.13
  111                 83.35      0.34      0.10
  112                161.23      0.46      0.14
  113                 35.43      0.23      0.06
  121                 51.47      0.33      0.12
  122                 28.53      0.32      0.17
  9                    0.00      0.00      0.00  Pump
   
   
  Link Results at 20:00:00 hrs:
  ----------------------------------------------
                       Flow  Velocity  Headloss
  Link                  gpm       fps   /1000ft
  ----------------------------------------------
  10                  -0.00      0.00      0.00
  11                -215.02      0.45      0.11
  12                 113.14      0.46      0.18
  21                 -42.18      0.17      0.03
  22                  36.86      0.10      0.01
  31                  17.20      0.20      0.07
  110                660.00      0.83      0.26
  111                125.02      0.51      0.21
  112                241.84      0.69      0.30
  113                 53.14      0.34      0.13
  121                 77.20      0.49      0.26
  122                 42.80      0.49      0.35
  9                    0.00      0.00      0.00  Pump
   
   
  Link Results at 21:00:00 hrs:
  ----------------------------------------------
                       Flow  Velocity  Headloss
  Link                  gpm       fps   /1000ft
  ----------------------------------------------
  10                  -0.00      0.00      0.00
  11                -215.02      0.45      0.11
  12                 113.14      0.46      0.18
  21                 -42.18      0.17      0.03
  22                  36.86      0.10      0.01
  31                  17.20      0.20      0.07
  110                660.00      0.83      0.26
  111                125.02      0.51      0.21
  112                241.84      0.69      0.30
  113                 53.14      0.34      0.13
  121                 77.20      0.49      0.26
  122                 42.80      0.49      0.35
  9                    0.00      0.00      0.00  Pump
   
   
  Link Results at 22:00:00 hrs:
  ----------------------------------------------
                       Flow  Velocity  Headloss
  Link                  gpm       fps   /1000ft
  ----------------------------------------------
  10                  -0.00      0.00      0.00
  11                -286.69      0.60      0.19
  12                 150.85      0.62      0.30
  21                 -56.24      0.23      0.05
  22                  49.15      0.14      0.02
  31                  22.93      0.26      0.11
  110                880.00      1.11      0.45
  111                166.69      0.68      0.36
  112                322.45      0.91      0.51
  113                 70.85      0.45      0.22
  121                102.93      0.66      0.44
  122                 57.07      0.65      0.60
  9                    0.00      0.00      0.00  Pump
   
   
  Link Results at 23:00:00 hrs:
  ----------------------------------------------
                       Flow  Velocity  Headloss
  Link                  gpm       fps   /1000ft
  ----------------------------------------------
  10                1909.42      2.41      1.89
  11                1310.99      2.73      3.21
  12                  85.91      0.35      0.11
  21                 235.69      0.96      0.69
  22                 114.09      0.32      0.07
  31                  42.74      0.48      0.35
  110              -1029.42      1.30      0.60
  111                478.43      1.95      2.56
  112                 75.66      0.21      0.03
  113                  5.91      0.04      0.00
  121                122.74      0.78      0.61
  122                 37.26      0.42      0.27
  9                 1909.42      0.00   -198.30  Pump
   
   
  Link Results at 24:00:00 hrs:
  ----------------------------------------------
                       Flow  Velocity  Headloss
  Link                  gpm       fps   /1000ft
  ----------------------------------------------
  10                1892.24      2.39      1.86
  11                1254.61      2.61      2.96
  12                 128.19      0.52      0.22
  21                 196.30      0.80      0.49
  22                 121.81      0.35      0.08
  31                  41.33      0.47      0.33
  110               -792.24      1.00      0.37
  111                487.64      1.99      2.65
  112                184.18      0.52      0.18
  113                 28.19      0.18      0.04
  121                141.33      0.90      0.79
  122                 58.67      0.67      0.63
  9                 1892.24      0.00   -200.72  Pump
   
  Analysis ended Fri Jun 19 11:39:29 2015
