  Page 1                                             05/08/2016 13:39:41
  **********************************************************************
  *                             E P A N E T                            *
  *                     Hydraulic and Water Quality                    *
  *                     Analysis for Pipe Networks                     *
  *                           Version 2.0                              *
  **********************************************************************
  
  Input File: Net1.inp
  
   EPANET Example Network 1
  A simple example of modeling chlorine decay. Both bulk and
  wall reactions are included. 
  
  Link - Node Table:
  ----------------------------------------------------------------------
  Link           Start          End                Length  Diameter
  ID             Node           Node                   ft        in
  ----------------------------------------------------------------------
  10             10             11                  10530        18
  11             11             12                   5280        14
  12             12             13                   5280        10
  21             21             22                   5280        10
  22             22             23                   5280        12
  31             31             32                   5280         6
  110            2              12                    200        18
  111            11             21                   5280        10
  112            12             22                   5280        12
  113            13             23                   5280         8
  121            21             31                   5280         8
  122            22             32                   5280         6
  9              9              10                   #N/A      #N/A Pump
  
  Energy Usage:
  ----------------------------------------------------------------------
                    Usage   Avg.     Kw-hr      Avg.      Peak      Cost
  Pump             Factor Effic.     /Mgal        Kw        Kw      /day
  ----------------------------------------------------------------------
  9                 57.71  75.00    880.42     96.25     96.71      0.00
  ----------------------------------------------------------------------
                                                Demand Charge:      0.00
                                                Total Cost:         0.00
  
  Node Results at 0:00 Hrs:
  ----------------------------------------------------------------------
  Node                Demand      Head  Pressure   Quality
  ID                     GPM        ft       psi      mg/L
  ----------------------------------------------------------------------
  10                    0.00   1004.35    127.54      0.50
  11                  150.00    985.23    119.26      0.50
  12                  150.00    970.07    117.02      0.50
  13                  100.00    968.87    118.67      0.50
  21                  150.00    971.55    117.66      0.50
  22                  200.00    969.08    118.76      0.50


  Page 2                                        EPANET Example Network 1
  Node Results at 0:00 Hrs: (continued)
  ----------------------------------------------------------------------
  Node                Demand      Head  Pressure   Quality
  ID                     GPM        ft       psi      mg/L
  ----------------------------------------------------------------------
  23                  150.00    968.65    120.74      0.50
  31                  100.00    967.39    115.86      0.50
  32                  100.00    965.69    110.79      0.50
  9                 -1866.18    800.00      0.00      1.00 Reservoir
  2                   766.18    970.00     52.00      1.00 Tank
  
  Link Results at 0:00 Hrs:
  ----------------------------------------------------------------------
  Link                  Flow  VelocityUnit Headloss    Status
  ID                     GPM       fps    ft/Kft
  ----------------------------------------------------------------------
  10                 1866.18      2.35      1.82      Open
  11                 1234.21      2.57      2.87      Open
  12                  129.34      0.53      0.23      Open
  21                  191.16      0.78      0.47      Open
  22                  120.66      0.34      0.08      Open
  31                   40.81      0.46      0.32      Open
  110                -766.18      0.97      0.35      Open
  111                 481.97      1.97      2.59      Open
  112                 188.70      0.54      0.19      Open
  113                  29.34      0.19      0.04      Open
  121                 140.81      0.90      0.79      Open
  122                  59.19      0.67      0.64      Open
  9                  1866.18      0.00   -204.35      Open Pump
  
  Node Results at 1:00 Hrs:
  ----------------------------------------------------------------------
  Node                Demand      Head  Pressure   Quality
  ID                     GPM        ft       psi      mg/L
  ----------------------------------------------------------------------
  10                    0.00   1006.77    128.59      1.00
  11                  150.00    987.98    120.45      0.44
  12                  150.00    973.14    118.35      0.44
  13                  100.00    971.92    119.99      0.43
  21                  150.00    974.50    118.94      0.41
  22                  200.00    972.11    120.07      0.43
  23                  150.00    971.69    122.05      0.44
  31                  100.00    970.36    117.15      0.41
  32                  100.00    968.69    112.09      0.39
  9                 -1848.58    800.00      0.00      1.00 Reservoir
  2                   748.58    973.07     53.33      0.97 Tank
  


  Page 3                                        EPANET Example Network 1
  Link Results at 1:00 Hrs:
  ----------------------------------------------------------------------
  Link                  Flow  VelocityUnit Headloss    Status
  ID                     GPM       fps    ft/Kft
  ----------------------------------------------------------------------
  10                 1848.58      2.33      1.78      Open
  11                 1220.43      2.54      2.81      Open
  12                  130.11      0.53      0.23      Open
  21                  187.69      0.77      0.45      Open
  22                  119.89      0.34      0.08      Open
  31                   40.46      0.46      0.32      Open
  110                -748.58      0.94      0.33      Open
  111                 478.15      1.95      2.55      Open
  112                 191.73      0.54      0.19      Open
  113                  30.11      0.19      0.05      Open
  121                 140.46      0.90      0.78      Open
  122                  59.54      0.68      0.65      Open
  9                  1848.58      0.00   -206.77      Open Pump
  
  Node Results at 2:00 Hrs:
  ----------------------------------------------------------------------
  Node                Demand      Head  Pressure   Quality
  ID                     GPM        ft       psi      mg/L
  ----------------------------------------------------------------------
  10                    0.00   1008.29    129.25      1.00
  11                  180.00    989.71    121.20      0.86
  12                  180.00    976.10    119.63      0.79
  13                  120.00    974.05    120.91      0.37
  21                  180.00    975.44    119.35      0.37
  22                  240.00    973.85    120.82      0.37
  23                  180.00    973.37    122.78      0.39
  31                  120.00    970.04    117.01      0.33
  32                  120.00    968.23    111.89      0.30
  9                 -1837.46    800.00      0.00      1.00 Reservoir
  2                   517.46    976.07     54.62      0.93 Tank
  
  Link Results at 2:00 Hrs:
  ----------------------------------------------------------------------
  Link                  Flow  VelocityUnit Headloss    Status
  ID                     GPM       fps    ft/Kft
  ----------------------------------------------------------------------
  10                 1837.46      2.32      1.76      Open
  11                 1164.40      2.43      2.58      Open
  12                  172.96      0.71      0.39      Open
  21                  150.84      0.62      0.30      Open
  22                  127.04      0.36      0.09      Open
  31                   42.22      0.48      0.34      Open
  110                -517.46      0.65      0.17      Open
  111                 493.06      2.01      2.70      Open
  112                 293.98      0.83      0.43      Open
  113                  52.96      0.34      0.13      Open
  121                 162.22      1.04      1.02      Open


  Page 4                                        EPANET Example Network 1
  Link Results at 2:00 Hrs: (continued)
  ----------------------------------------------------------------------
  Link                  Flow  VelocityUnit Headloss    Status
  ID                     GPM       fps    ft/Kft
  ----------------------------------------------------------------------
  122                  77.78      0.88      1.06      Open
  9                  1837.46      0.00   -208.29      Open Pump
  
  Node Results at 3:00 Hrs:
  ----------------------------------------------------------------------
  Node                Demand      Head  Pressure   Quality
  ID                     GPM        ft       psi      mg/L
  ----------------------------------------------------------------------
  10                    0.00   1009.92    129.96      1.00
  11                  180.00    991.57    122.01      0.86
  12                  180.00    978.17    120.53      0.79
  13                  120.00    976.11    121.80      0.31
  21                  180.00    977.44    120.21      0.75
  22                  240.00    975.89    121.71      0.32
  23                  180.00    975.42    123.67      0.34
  31                  120.00    972.05    117.88      0.28
  32                  120.00    970.25    112.76      0.24
  9                 -1825.38    800.00      0.00      1.00 Reservoir
  2                   505.38    978.14     55.52      0.91 Tank
  
  Link Results at 3:00 Hrs:
  ----------------------------------------------------------------------
  Link                  Flow  VelocityUnit Headloss    Status
  ID                     GPM       fps    ft/Kft
  ----------------------------------------------------------------------
  10                 1825.38      2.30      1.74      Open
  11                 1154.82      2.41      2.54      Open
  12                  173.49      0.71      0.39      Open
  21                  148.51      0.61      0.29      Open
  22                  126.51      0.36      0.09      Open
  31                   42.05      0.48      0.34      Open
  110                -505.38      0.64      0.16      Open
  111                 490.57      2.00      2.68      Open
  112                 295.94      0.84      0.43      Open
  113                  53.49      0.34      0.13      Open
  121                 162.05      1.03      1.02      Open
  122                  77.95      0.88      1.07      Open
  9                  1825.38      0.00   -209.92      Open Pump
  


  Page 5                                        EPANET Example Network 1
  Node Results at 4:00 Hrs:
  ----------------------------------------------------------------------
  Node                Demand      Head  Pressure   Quality
  ID                     GPM        ft       psi      mg/L
  ----------------------------------------------------------------------
  10                    0.00   1010.67    130.28      1.00
  11                  210.00    992.42    122.37      0.86
  12                  210.00    980.17    121.40      0.79
  13                  140.00    977.08    122.23      0.30
  21                  210.00    977.24    120.13      0.75
  22                  280.00    976.29    121.88      0.49
  23                  210.00    975.76    123.82      0.30
  31                  140.00    970.32    117.13      0.54
  32                  140.00    968.23    111.89      0.21
  9                 -1819.86    800.00      0.00      1.00 Reservoir
  2                   279.86    980.16     56.40      0.89 Tank
  
  Link Results at 4:00 Hrs:
  ----------------------------------------------------------------------
  Link                  Flow  VelocityUnit Headloss    Status
  ID                     GPM       fps    ft/Kft
  ----------------------------------------------------------------------
  10                 1819.86      2.29      1.73      Open
  11                 1100.06      2.29      2.32      Open
  12                  215.82      0.88      0.59      Open
  21                  114.27      0.47      0.18      Open
  22                  134.18      0.38      0.10      Open
  31                   45.52      0.52      0.39      Open
  110                -279.86      0.35      0.05      Open
  111                 509.79      2.08      2.88      Open
  112                 394.39      1.12      0.74      Open
  113                  75.82      0.48      0.25      Open
  121                 185.52      1.18      1.31      Open
  122                  94.48      1.07      1.53      Open
  9                  1819.86      0.00   -210.67      Open Pump
  
  Node Results at 5:00 Hrs:
  ----------------------------------------------------------------------
  Node                Demand      Head  Pressure   Quality
  ID                     GPM        ft       psi      mg/L
  ----------------------------------------------------------------------
  10                    0.00   1011.56    130.67      1.00
  11                  210.00    993.43    122.81      0.86
  12                  210.00    981.29    121.88      0.78
  13                  140.00    978.20    122.71      0.58
  21                  210.00    978.32    120.60      0.75
  22                  280.00    977.39    122.36      0.60
  23                  210.00    976.87    124.30      0.25
  31                  140.00    971.40    117.60      0.56
  32                  140.00    969.32    112.37      0.18
  9                 -1813.25    800.00      0.00      1.00 Reservoir
  2                   273.25    981.28     56.88      0.87 Tank


  Page 6                                        EPANET Example Network 1
  
  Link Results at 5:00 Hrs:
  ----------------------------------------------------------------------
  Link                  Flow  VelocityUnit Headloss    Status
  ID                     GPM       fps    ft/Kft
  ----------------------------------------------------------------------
  10                 1813.25      2.29      1.72      Open
  11                 1094.76      2.28      2.30      Open
  12                  216.10      0.88      0.59      Open
  21                  113.03      0.46      0.18      Open
  22                  133.90      0.38      0.10      Open
  31                   45.46      0.52      0.39      Open
  110                -273.25      0.34      0.05      Open
  111                 508.49      2.08      2.86      Open
  112                 395.40      1.12      0.74      Open
  113                  76.10      0.49      0.25      Open
  121                 185.46      1.18      1.31      Open
  122                  94.54      1.07      1.53      Open
  9                  1813.25      0.00   -211.56      Open Pump
  
  Node Results at 6:00 Hrs:
  ----------------------------------------------------------------------
  Node                Demand      Head  Pressure   Quality
  ID                     GPM        ft       psi      mg/L
  ----------------------------------------------------------------------
  10                    0.00   1011.58    130.67      1.00
  11                  240.00    993.45    122.82      0.86
  12                  240.00    982.38    122.35      0.78
  13                  160.00    978.08    122.66      0.59
  21                  240.00    977.06    120.05      0.75
  22                  320.00    976.55    122.00      0.60
  23                  240.00    975.97    123.91      0.21
  31                  160.00    968.35    116.28      0.57
  32                  160.00    965.87    110.87      0.30
  9                 -1813.13    800.00      0.00      1.00 Reservoir
  2                    53.13    982.38     57.36      0.85 Tank
  
  Link Results at 6:00 Hrs:
  ----------------------------------------------------------------------
  Link                  Flow  VelocityUnit Headloss    Status
  ID                     GPM       fps    ft/Kft
  ----------------------------------------------------------------------
  10                 1813.13      2.29      1.72      Open
  11                 1041.79      2.17      2.10      Open
  12                  257.81      1.05      0.81      Open
  21                   81.35      0.33      0.10      Open
  22                  142.19      0.40      0.11      Open
  31                   49.99      0.57      0.47      Open
  110                 -53.13      0.07      0.00      Open
  111                 531.34      2.17      3.10      Open
  112                 490.85      1.39      1.10      Open
  113                  97.81      0.62      0.40      Open


  Page 7                                        EPANET Example Network 1
  Link Results at 6:00 Hrs: (continued)
  ----------------------------------------------------------------------
  Link                  Flow  VelocityUnit Headloss    Status
  ID                     GPM       fps    ft/Kft
  ----------------------------------------------------------------------
  121                 209.99      1.34      1.65      Open
  122                 110.01      1.25      2.02      Open
  9                  1813.13      0.00   -211.58      Open Pump
  
  Node Results at 7:00 Hrs:
  ----------------------------------------------------------------------
  Node                Demand      Head  Pressure   Quality
  ID                     GPM        ft       psi      mg/L
  ----------------------------------------------------------------------
  10                    0.00   1011.75    130.75      1.00
  11                  240.00    993.65    122.90      0.86
  12                  240.00    982.59    122.45      0.77
  13                  160.00    978.29    122.75      0.60
  21                  240.00    977.27    120.14      0.75
  22                  320.00    976.76    122.09      0.63
  23                  240.00    976.18    124.00      0.25
  31                  160.00    968.56    116.37      0.58
  32                  160.00    966.08    110.96      0.37
  9                 -1811.87    800.00      0.00      1.00 Reservoir
  2                    51.87    982.59     57.45      0.84 Tank
  
  Link Results at 7:00 Hrs:
  ----------------------------------------------------------------------
  Link                  Flow  VelocityUnit Headloss    Status
  ID                     GPM       fps    ft/Kft
  ----------------------------------------------------------------------
  10                 1811.87      2.28      1.72      Open
  11                 1040.76      2.17      2.09      Open
  12                  257.86      1.05      0.81      Open
  21                   81.13      0.33      0.10      Open
  22                  142.14      0.40      0.11      Open
  31                   49.98      0.57      0.47      Open
  110                 -51.87      0.07      0.00      Open
  111                 531.11      2.17      3.10      Open
  112                 491.04      1.39      1.10      Open
  113                  97.86      0.62      0.40      Open
  121                 209.98      1.34      1.65      Open
  122                 110.02      1.25      2.02      Open
  9                  1811.87      0.00   -211.75      Open Pump
  


  Page 8                                        EPANET Example Network 1
  Node Results at 8:00 Hrs:
  ----------------------------------------------------------------------
  Node                Demand      Head  Pressure   Quality
  ID                     GPM        ft       psi      mg/L
  ----------------------------------------------------------------------
  10                    0.00   1012.76    131.19      1.00
  11                  210.00    994.80    123.40      0.86
  12                  210.00    982.81    122.54      0.77
  13                  140.00    979.70    123.36      0.61
  21                  210.00    979.79    121.23      0.75
  22                  280.00    978.88    123.01      0.63
  23                  210.00    978.36    124.95      0.34
  31                  140.00    972.87    118.24      0.58
  32                  140.00    970.80    113.00      0.39
  9                 -1804.29    800.00      0.00      1.00 Reservoir
  2                   264.29    982.80     57.54      0.82 Tank
  
  Link Results at 8:00 Hrs:
  ----------------------------------------------------------------------
  Link                  Flow  VelocityUnit Headloss    Status
  ID                     GPM       fps    ft/Kft
  ----------------------------------------------------------------------
  10                 1804.29      2.27      1.71      Open
  11                 1087.56      2.27      2.27      Open
  12                  216.48      0.88      0.59      Open
  21                  111.35      0.45      0.17      Open
  22                  133.52      0.38      0.10      Open
  31                   45.38      0.51      0.39      Open
  110                -264.29      0.33      0.05      Open
  111                 506.73      2.07      2.84      Open
  112                 396.78      1.13      0.74      Open
  113                  76.48      0.49      0.25      Open
  121                 185.38      1.18      1.31      Open
  122                  94.62      1.07      1.53      Open
  9                  1804.29      0.00   -212.76      Open Pump
  
  Node Results at 9:00 Hrs:
  ----------------------------------------------------------------------
  Node                Demand      Head  Pressure   Quality
  ID                     GPM        ft       psi      mg/L
  ----------------------------------------------------------------------
  10                    0.00   1013.60    131.55      1.00
  11                  210.00    995.76    123.82      0.86
  12                  210.00    983.86    123.00      0.78
  13                  140.00    980.75    123.82      0.59
  21                  210.00    980.81    121.67      0.75
  22                  280.00    979.92    123.46      0.60
  23                  210.00    979.40    125.40      0.37
  31                  140.00    973.90    118.68      0.57
  32                  140.00    971.83    113.45      0.38
  9                 -1798.00    800.00      0.00      1.00 Reservoir
  2                   258.00    983.86     58.00      0.80 Tank


  Page 9                                        EPANET Example Network 1
  
  Link Results at 9:00 Hrs:
  ----------------------------------------------------------------------
  Link                  Flow  VelocityUnit Headloss    Status
  ID                     GPM       fps    ft/Kft
  ----------------------------------------------------------------------
  10                 1798.00      2.27      1.69      Open
  11                 1082.50      2.26      2.25      Open
  12                  216.75      0.89      0.59      Open
  21                  110.17      0.45      0.17      Open
  22                  133.25      0.38      0.10      Open
  31                   45.33      0.51      0.39      Open
  110                -258.00      0.33      0.05      Open
  111                 505.50      2.06      2.83      Open
  112                 397.75      1.13      0.75      Open
  113                  76.75      0.49      0.26      Open
  121                 185.33      1.18      1.31      Open
  122                  94.67      1.07      1.53      Open
  9                  1798.00      0.00   -213.60      Open Pump
  
  Node Results at 10:00 Hrs:
  ----------------------------------------------------------------------
  Node                Demand      Head  Pressure   Quality
  ID                     GPM        ft       psi      mg/L
  ----------------------------------------------------------------------
  10                    0.00   1015.26    132.27      1.00
  11                  180.00    997.65    124.64      0.86
  12                  180.00    984.92    123.45      0.78
  13                  120.00    982.82    124.71      0.58
  21                  180.00    983.94    123.03      0.75
  22                  240.00    982.54    124.59      0.59
  23                  180.00    982.08    126.56      0.37
  31                  120.00    978.59    120.71      0.56
  32                  120.00    976.83    115.62      0.36
  9                 -1785.48    800.00      0.00      1.00 Reservoir
  2                   465.48    984.89     58.45      0.79 Tank
  
  Link Results at 10:00 Hrs:
  ----------------------------------------------------------------------
  Link                  Flow  VelocityUnit Headloss    Status
  ID                     GPM       fps    ft/Kft
  ----------------------------------------------------------------------
  10                 1785.48      2.25      1.67      Open
  11                 1123.12      2.34      2.41      Open
  12                  175.24      0.72      0.40      Open
  21                  140.83      0.58      0.27      Open
  22                  124.76      0.35      0.09      Open
  31                   41.53      0.47      0.33      Open
  110                -465.48      0.59      0.14      Open
  111                 482.35      1.97      2.60      Open
  112                 302.41      0.86      0.45      Open
  113                  55.24      0.35      0.14      Open


  Page 10                                       EPANET Example Network 1
  Link Results at 10:00 Hrs: (continued)
  ----------------------------------------------------------------------
  Link                  Flow  VelocityUnit Headloss    Status
  ID                     GPM       fps    ft/Kft
  ----------------------------------------------------------------------
  121                 161.53      1.03      1.01      Open
  122                  78.47      0.89      1.08      Open
  9                  1785.48      0.00   -215.26      Open Pump
  
  Node Results at 11:00 Hrs:
  ----------------------------------------------------------------------
  Node                Demand      Head  Pressure   Quality
  ID                     GPM        ft       psi      mg/L
  ----------------------------------------------------------------------
  10                    0.00   1016.73    132.91      1.00
  11                  180.00    999.32    125.36      0.86
  12                  180.00    986.78    124.26      0.78
  13                  120.00    984.67    125.51      0.56
  21                  180.00    985.74    123.81      0.74
  22                  240.00    984.38    125.39      0.57
  23                  180.00    983.92    127.36      0.37
  31                  120.00    980.39    121.49      0.55
  32                  120.00    978.65    116.40      0.35
  9                 -1774.30    800.00      0.00      1.00 Reservoir
  2                   454.30    986.75     59.25      0.77 Tank
  
  Link Results at 11:00 Hrs:
  ----------------------------------------------------------------------
  Link                  Flow  VelocityUnit Headloss    Status
  ID                     GPM       fps    ft/Kft
  ----------------------------------------------------------------------
  10                 1774.30      2.24      1.65      Open
  11                 1114.24      2.32      2.38      Open
  12                  175.73      0.72      0.40      Open
  21                  138.68      0.57      0.26      Open
  22                  124.27      0.35      0.09      Open
  31                   41.38      0.47      0.33      Open
  110                -454.30      0.57      0.13      Open
  111                 480.06      1.96      2.57      Open
  112                 304.21      0.86      0.45      Open
  113                  55.73      0.36      0.14      Open
  121                 161.38      1.03      1.01      Open
  122                  78.62      0.89      1.09      Open
  9                  1774.30      0.00   -216.73      Open Pump
  


  Page 11                                       EPANET Example Network 1
  Node Results at 12:00 Hrs:
  ----------------------------------------------------------------------
  Node                Demand      Head  Pressure   Quality
  ID                     GPM        ft       psi      mg/L
  ----------------------------------------------------------------------
  10                    0.00   1018.99    133.89      1.00
  11                  150.00   1001.90    126.48      0.86
  12                  150.00    988.62    125.06      0.78
  13                  100.00    987.34    126.67      0.55
  21                  150.00    989.42    125.41      0.74
  22                  200.00    987.44    126.72      0.57
  23                  150.00    987.04    128.71      0.36
  31                  100.00    985.38    123.65      0.54
  32                  100.00    983.83    118.65      0.33
  9                 -1757.04    800.00      0.00      1.00 Reservoir
  2                   657.04    988.57     60.04      0.75 Tank
  
  Link Results at 12:00 Hrs:
  ----------------------------------------------------------------------
  Link                  Flow  VelocityUnit Headloss    Status
  ID                     GPM       fps    ft/Kft
  ----------------------------------------------------------------------
  10                 1757.04      2.22      1.62      Open
  11                 1148.60      2.39      2.51      Open
  12                  134.16      0.55      0.24      Open
  21                  169.69      0.69      0.37      Open
  22                  115.84      0.33      0.08      Open
  31                   38.75      0.44      0.29      Open
  110                -657.04      0.83      0.26      Open
  111                 458.44      1.87      2.36      Open
  112                 207.40      0.59      0.22      Open
  113                  34.16      0.22      0.06      Open
  121                 138.75      0.89      0.77      Open
  122                  61.25      0.69      0.68      Open
  9                  1757.04      0.00   -218.99      Open Pump
  
  Node Results at 13:00 Hrs:
  ----------------------------------------------------------------------
  Node                Demand      Head  Pressure   Quality
  ID                     GPM        ft       psi      mg/L
  ----------------------------------------------------------------------
  10                    0.00    986.31    119.73      0.99
  11                  150.00    986.31    119.73      0.79
  12                  150.00    987.85    124.73      0.74
  13                  100.00    985.44    125.85      0.55
  21                  150.00    983.42    122.81      0.71
  22                  200.00    983.81    125.14      0.61
  23                  150.00    983.68    127.25      0.33
  31                  100.00    979.90    121.28      0.52
  32                  100.00    979.02    116.57      0.32
  9                     0.00    800.00      0.00      1.00 Reservoir
  2                 -1100.00    987.99     59.79      0.74 Tank


  Page 12                                       EPANET Example Network 1
  
  Link Results at 13:00 Hrs:
  ----------------------------------------------------------------------
  Link                  Flow  VelocityUnit Headloss    Status
  ID                     GPM       fps    ft/Kft
  ----------------------------------------------------------------------
  10                    0.00      0.00      0.00      Open
  11                 -358.36      0.75      0.29      Open
  12                  188.57      0.77      0.46      Open
  21                  -70.30      0.29      0.07      Open
  22                   61.43      0.17      0.02      Open
  31                   28.67      0.33      0.17      Open
  110                1100.00      1.39      0.68      Open
  111                 208.36      0.85      0.55      Open
  112                 403.07      1.14      0.77      Open
  113                  88.57      0.57      0.33      Open
  121                 128.67      0.82      0.67      Open
  122                  71.33      0.81      0.91      Open
  9                     0.00      0.00      0.00    Closed Pump
  
  Node Results at 14:00 Hrs:
  ----------------------------------------------------------------------
  Node                Demand      Head  Pressure   Quality
  ID                     GPM        ft       psi      mg/L
  ----------------------------------------------------------------------
  10                    0.00    982.48    118.06      0.97
  11                  120.00    982.48    118.06      0.68
  12                  120.00    983.49    122.84      0.72
  13                   80.00    981.90    124.31      0.55
  21                  120.00    980.56    121.57      0.62
  22                  160.00    980.82    123.84      0.61
  23                  120.00    980.73    125.98      0.32
  31                   80.00    978.23    120.56      0.51
  32                   80.00    977.65    115.97      0.30
  9                     0.00    800.00      0.00      1.00 Reservoir
  2                  -880.00    983.58     57.88      0.72 Tank
  
  Link Results at 14:00 Hrs:
  ----------------------------------------------------------------------
  Link                  Flow  VelocityUnit Headloss    Status
  ID                     GPM       fps    ft/Kft
  ----------------------------------------------------------------------
  10                    0.00      0.00      0.00      Open
  11                 -286.69      0.60      0.19      Open
  12                  150.85      0.62      0.30      Open
  21                  -56.24      0.23      0.05      Open
  22                   49.15      0.14      0.02      Open
  31                   22.93      0.26      0.11      Open
  110                 880.00      1.11      0.45      Open
  111                 166.69      0.68      0.36      Open
  112                 322.45      0.91      0.51      Open
  113                  70.85      0.45      0.22      Open


  Page 13                                       EPANET Example Network 1
  Link Results at 14:00 Hrs: (continued)
  ----------------------------------------------------------------------
  Link                  Flow  VelocityUnit Headloss    Status
  ID                     GPM       fps    ft/Kft
  ----------------------------------------------------------------------
  121                 102.93      0.66      0.44      Open
  122                  57.07      0.65      0.60      Open
  9                     0.00      0.00      0.00    Closed Pump
  
  Node Results at 15:00 Hrs:
  ----------------------------------------------------------------------
  Node                Demand      Head  Pressure   Quality
  ID                     GPM        ft       psi      mg/L
  ----------------------------------------------------------------------
  10                    0.00    978.95    116.54      0.95
  11                  120.00    978.95    116.54      0.56
  12                  120.00    979.97    121.31      0.70
  13                   80.00    978.37    122.79      0.52
  21                  120.00    977.04    120.04      0.54
  22                  160.00    977.29    122.32      0.58
  23                  120.00    977.21    124.45      0.32
  31                   80.00    974.71    119.03      0.47
  32                   80.00    974.13    114.45      0.31
  9                     0.00    800.00      0.00      1.00 Reservoir
  2                  -880.00    980.06     56.35      0.71 Tank
  
  Link Results at 15:00 Hrs:
  ----------------------------------------------------------------------
  Link                  Flow  VelocityUnit Headloss    Status
  ID                     GPM       fps    ft/Kft
  ----------------------------------------------------------------------
  10                    0.00      0.00      0.00      Open
  11                 -286.69      0.60      0.19      Open
  12                  150.85      0.62      0.30      Open
  21                  -56.24      0.23      0.05      Open
  22                   49.15      0.14      0.02      Open
  31                   22.93      0.26      0.11      Open
  110                 880.00      1.11      0.45      Open
  111                 166.69      0.68      0.36      Open
  112                 322.45      0.91      0.51      Open
  113                  70.85      0.45      0.22      Open
  121                 102.93      0.66      0.44      Open
  122                  57.07      0.65      0.60      Open
  9                     0.00      0.00      0.00    Closed Pump
  


  Page 14                                       EPANET Example Network 1
  Node Results at 16:00 Hrs:
  ----------------------------------------------------------------------
  Node                Demand      Head  Pressure   Quality
  ID                     GPM        ft       psi      mg/L
  ----------------------------------------------------------------------
  10                    0.00    975.88    115.21      0.93
  11                   90.00    975.88    115.21      0.55
  12                   90.00    976.48    119.80      0.69
  13                   60.00    975.55    121.56      0.49
  21                   90.00    974.76    119.05      0.46
  22                  120.00    974.91    121.29      0.56
  23                   90.00    974.86    123.43      0.31
  31                   60.00    973.39    118.46      0.41
  32                   60.00    973.05    113.98      0.31
  9                     0.00    800.00      0.00      1.00 Reservoir
  2                  -660.00    976.53     54.83      0.69 Tank
  
  Link Results at 16:00 Hrs:
  ----------------------------------------------------------------------
  Link                  Flow  VelocityUnit Headloss    Status
  ID                     GPM       fps    ft/Kft
  ----------------------------------------------------------------------
  10                    0.00      0.00      0.00      Open
  11                 -215.02      0.45      0.11      Open
  12                  113.14      0.46      0.18      Open
  21                  -42.18      0.17      0.03      Open
  22                   36.86      0.10      0.01      Open
  31                   17.20      0.20      0.07      Open
  110                 660.00      0.83      0.26      Open
  111                 125.02      0.51      0.21      Open
  112                 241.84      0.69      0.30      Open
  113                  53.14      0.34      0.13      Open
  121                  77.20      0.49      0.26      Open
  122                  42.80      0.49      0.35      Open
  9                     0.00      0.00      0.00    Closed Pump
  
  Node Results at 17:00 Hrs:
  ----------------------------------------------------------------------
  Node                Demand      Head  Pressure   Quality
  ID                     GPM        ft       psi      mg/L
  ----------------------------------------------------------------------
  10                    0.00    973.24    114.06      0.91
  11                   90.00    973.24    114.06      0.52
  12                   90.00    973.84    118.65      0.67
  13                   60.00    972.90    120.42      0.47
  21                   90.00    972.12    117.91      0.39
  22                  120.00    972.27    120.14      0.53
  23                   90.00    972.22    122.29      0.30
  31                   60.00    970.75    117.32      0.35
  32                   60.00    970.41    112.83      0.27
  9                     0.00    800.00      0.00      1.00 Reservoir
  2                  -660.00    973.89     53.68      0.68 Tank


  Page 15                                       EPANET Example Network 1
  
  Link Results at 17:00 Hrs:
  ----------------------------------------------------------------------
  Link                  Flow  VelocityUnit Headloss    Status
  ID                     GPM       fps    ft/Kft
  ----------------------------------------------------------------------
  10                    0.00      0.00      0.00      Open
  11                 -215.02      0.45      0.11      Open
  12                  113.14      0.46      0.18      Open
  21                  -42.18      0.17      0.03      Open
  22                   36.86      0.10      0.01      Open
  31                   17.20      0.20      0.07      Open
  110                 660.00      0.83      0.26      Open
  111                 125.02      0.51      0.21      Open
  112                 241.84      0.69      0.30      Open
  113                  53.14      0.34      0.13      Open
  121                  77.20      0.49      0.26      Open
  122                  42.80      0.49      0.35      Open
  9                     0.00      0.00      0.00    Closed Pump
  
  Node Results at 18:00 Hrs:
  ----------------------------------------------------------------------
  Node                Demand      Head  Pressure   Quality
  ID                     GPM        ft       psi      mg/L
  ----------------------------------------------------------------------
  10                    0.00    970.94    113.07      0.89
  11                   60.00    970.94    113.07      0.50
  12                   60.00    971.22    117.52      0.66
  13                   40.00    970.78    119.50      0.45
  21                   60.00    970.41    117.17      0.34
  22                   80.00    970.48    119.37      0.51
  23                   60.00    970.46    121.52      0.28
  31                   40.00    969.77    116.89      0.30
  32                   40.00    969.60    112.49      0.25
  9                     0.00    800.00      0.00      1.00 Reservoir
  2                  -440.00    971.25     52.54      0.66 Tank
  
  Link Results at 18:00 Hrs:
  ----------------------------------------------------------------------
  Link                  Flow  VelocityUnit Headloss    Status
  ID                     GPM       fps    ft/Kft
  ----------------------------------------------------------------------
  10                    0.00      0.00      0.00      Open
  11                 -143.35      0.30      0.05      Open
  12                   75.43      0.31      0.08      Open
  21                  -28.12      0.11      0.01      Open
  22                   24.57      0.07      0.00      Open
  31                   11.47      0.13      0.03      Open
  110                 440.00      0.55      0.13      Open
  111                  83.35      0.34      0.10      Open
  112                 161.23      0.46      0.14      Open
  113                  35.43      0.23      0.06      Open


  Page 16                                       EPANET Example Network 1
  Link Results at 18:00 Hrs: (continued)
  ----------------------------------------------------------------------
  Link                  Flow  VelocityUnit Headloss    Status
  ID                     GPM       fps    ft/Kft
  ----------------------------------------------------------------------
  121                  51.47      0.33      0.12      Open
  122                  28.53      0.32      0.17      Open
  9                     0.00      0.00      0.00    Closed Pump
  
  Node Results at 19:00 Hrs:
  ----------------------------------------------------------------------
  Node                Demand      Head  Pressure   Quality
  ID                     GPM        ft       psi      mg/L
  ----------------------------------------------------------------------
  10                    0.00    969.18    112.30      0.87
  11                   60.00    969.18    112.30      0.47
  12                   60.00    969.46    116.76      0.65
  13                   40.00    969.02    118.73      0.42
  21                   60.00    968.65    116.41      0.31
  22                   80.00    968.72    118.60      0.49
  23                   60.00    968.70    120.76      0.26
  31                   40.00    968.00    116.13      0.26
  32                   40.00    967.84    111.72      0.23
  9                     0.00    800.00      0.00      1.00 Reservoir
  2                  -440.00    969.49     51.77      0.65 Tank
  
  Link Results at 19:00 Hrs:
  ----------------------------------------------------------------------
  Link                  Flow  VelocityUnit Headloss    Status
  ID                     GPM       fps    ft/Kft
  ----------------------------------------------------------------------
  10                    0.00      0.00      0.00      Open
  11                 -143.35      0.30      0.05      Open
  12                   75.43      0.31      0.08      Open
  21                  -28.12      0.11      0.01      Open
  22                   24.57      0.07      0.00      Open
  31                   11.47      0.13      0.03      Open
  110                 440.00      0.55      0.13      Open
  111                  83.35      0.34      0.10      Open
  112                 161.23      0.46      0.14      Open
  113                  35.43      0.23      0.06      Open
  121                  51.47      0.33      0.12      Open
  122                  28.53      0.32      0.17      Open
  9                     0.00      0.00      0.00    Closed Pump
  


  Page 17                                       EPANET Example Network 1
  Node Results at 20:00 Hrs:
  ----------------------------------------------------------------------
  Node                Demand      Head  Pressure   Quality
  ID                     GPM        ft       psi      mg/L
  ----------------------------------------------------------------------
  10                    0.00    967.07    111.39      0.85
  11                   90.00    967.07    111.39      0.45
  12                   90.00    967.67    115.98      0.63
  13                   60.00    966.74    117.74      0.40
  21                   90.00    965.95    115.24      0.29
  22                  120.00    966.10    117.47      0.46
  23                   90.00    966.05    119.61      0.25
  31                   60.00    964.58    114.64      0.23
  32                   60.00    964.24    110.16      0.21
  9                     0.00    800.00      0.00      1.00 Reservoir
  2                  -660.00    967.72     51.01      0.64 Tank
  
  Link Results at 20:00 Hrs:
  ----------------------------------------------------------------------
  Link                  Flow  VelocityUnit Headloss    Status
  ID                     GPM       fps    ft/Kft
  ----------------------------------------------------------------------
  10                    0.00      0.00      0.00      Open
  11                 -215.02      0.45      0.11      Open
  12                  113.14      0.46      0.18      Open
  21                  -42.18      0.17      0.03      Open
  22                   36.86      0.10      0.01      Open
  31                   17.20      0.20      0.07      Open
  110                 660.00      0.83      0.26      Open
  111                 125.02      0.51      0.21      Open
  112                 241.84      0.69      0.30      Open
  113                  53.14      0.34      0.13      Open
  121                  77.20      0.49      0.26      Open
  122                  42.80      0.49      0.35      Open
  9                     0.00      0.00      0.00    Closed Pump
  
  Node Results at 21:00 Hrs:
  ----------------------------------------------------------------------
  Node                Demand      Head  Pressure   Quality
  ID                     GPM        ft       psi      mg/L
  ----------------------------------------------------------------------
  10                    0.00    964.43    110.25      0.83
  11                   90.00    964.43    110.25      0.44
  12                   90.00    965.03    114.84      0.62
  13                   60.00    964.09    116.60      0.39
  21                   90.00    963.31    114.09      0.29
  22                  120.00    963.46    116.32      0.45
  23                   90.00    963.41    118.47      0.23
  31                   60.00    961.94    113.50      0.19
  32                   60.00    961.60    109.02      0.20
  9                     0.00    800.00      0.00      1.00 Reservoir
  2                  -660.00    965.08     49.86      0.62 Tank


  Page 18                                       EPANET Example Network 1
  
  Link Results at 21:00 Hrs:
  ----------------------------------------------------------------------
  Link                  Flow  VelocityUnit Headloss    Status
  ID                     GPM       fps    ft/Kft
  ----------------------------------------------------------------------
  10                    0.00      0.00      0.00      Open
  11                 -215.02      0.45      0.11      Open
  12                  113.14      0.46      0.18      Open
  21                  -42.18      0.17      0.03      Open
  22                   36.86      0.10      0.01      Open
  31                   17.20      0.20      0.07      Open
  110                 660.00      0.83      0.26      Open
  111                 125.02      0.51      0.21      Open
  112                 241.84      0.69      0.30      Open
  113                  53.14      0.34      0.13      Open
  121                  77.20      0.49      0.26      Open
  122                  42.80      0.49      0.35      Open
  9                     0.00      0.00      0.00    Closed Pump
  
  Node Results at 22:00 Hrs:
  ----------------------------------------------------------------------
  Node                Demand      Head  Pressure   Quality
  ID                     GPM        ft       psi      mg/L
  ----------------------------------------------------------------------
  10                    0.00    961.33    108.90      0.82
  11                  120.00    961.33    108.90      0.43
  12                  120.00    962.35    113.67      0.61
  13                   80.00    960.76    115.15      0.38
  21                  120.00    959.42    112.41      0.29
  22                  160.00    959.67    114.68      0.46
  23                  120.00    959.59    116.81      0.22
  31                   80.00    957.09    111.40      0.17
  32                   80.00    956.51    106.81      0.19
  9                     0.00    800.00      0.00      1.00 Reservoir
  2                  -880.00    962.44     48.72      0.61 Tank
  
  Link Results at 22:00 Hrs:
  ----------------------------------------------------------------------
  Link                  Flow  VelocityUnit Headloss    Status
  ID                     GPM       fps    ft/Kft
  ----------------------------------------------------------------------
  10                    0.00      0.00      0.00      Open
  11                 -286.69      0.60      0.19      Open
  12                  150.85      0.62      0.30      Open
  21                  -56.24      0.23      0.05      Open
  22                   49.15      0.14      0.02      Open
  31                   22.93      0.26      0.11      Open
  110                 880.00      1.11      0.45      Open
  111                 166.69      0.68      0.36      Open
  112                 322.45      0.91      0.51      Open
  113                  70.85      0.45      0.22      Open


  Page 19                                       EPANET Example Network 1
  Link Results at 22:00 Hrs: (continued)
  ----------------------------------------------------------------------
  Link                  Flow  VelocityUnit Headloss    Status
  ID                     GPM       fps    ft/Kft
  ----------------------------------------------------------------------
  121                 102.93      0.66      0.44      Open
  122                  57.07      0.65      0.60      Open
  9                     0.00      0.00      0.00    Closed Pump
  
  Node Results at 23:00 Hrs:
  ----------------------------------------------------------------------
  Node                Demand      Head  Pressure   Quality
  ID                     GPM        ft       psi      mg/L
  ----------------------------------------------------------------------
  10                    0.00    998.30    124.92      1.00
  11                  120.00    978.35    116.28      0.69
  12                  120.00    961.40    113.26      0.50
  13                   80.00    960.84    115.19      0.40
  21                  120.00    964.86    114.76      0.32
  22                  160.00    961.22    115.35      0.40
  23                  120.00    960.83    117.35      0.23
  31                   80.00    961.63    113.37      0.18
  32                   80.00    959.78    108.23      0.16
  9                 -1909.42    800.00      0.00      1.00 Reservoir
  2                  1029.42    961.28     48.22      0.60 Tank
  
  Link Results at 23:00 Hrs:
  ----------------------------------------------------------------------
  Link                  Flow  VelocityUnit Headloss    Status
  ID                     GPM       fps    ft/Kft
  ----------------------------------------------------------------------
  10                 1909.42      2.41      1.89      Open
  11                 1310.99      2.73      3.21      Open
  12                   85.91      0.35      0.11      Open
  21                  235.69      0.96      0.69      Open
  22                  114.09      0.32      0.07      Open
  31                   42.74      0.48      0.35      Open
  110               -1029.42      1.30      0.60      Open
  111                 478.43      1.95      2.56      Open
  112                  75.66      0.21      0.03      Open
  113                   5.91      0.04      0.00      Open
  121                 122.74      0.78      0.61      Open
  122                  37.26      0.42      0.27      Open
  9                  1909.42      0.00   -198.30      Open Pump
  


  Page 20                                       EPANET Example Network 1
  Node Results at 24:00 Hrs:
  ----------------------------------------------------------------------
  Node                Demand      Head  Pressure   Quality
  ID                     GPM        ft       psi      mg/L
  ----------------------------------------------------------------------
  10                    0.00   1000.72    125.97      1.00
  11                  150.00    981.10    117.47      0.87
  12                  150.00    965.48    115.03      0.64
  13                  100.00    964.30    116.69      0.38
  21                  150.00    967.12    115.74      0.60
  22                  200.00    964.53    116.79      0.26
  23                  150.00    964.09    118.76      0.25
  31                  100.00    962.94    113.93      0.19
  32                  100.00    961.19    108.84      0.15
  9                 -1892.24    800.00      0.00      1.00 Reservoir
  2                   792.24    965.40     50.00      0.59 Tank
  
  Link Results at 24:00 Hrs:
  ----------------------------------------------------------------------
  Link                  Flow  VelocityUnit Headloss    Status
  ID                     GPM       fps    ft/Kft
  ----------------------------------------------------------------------
  10                 1892.24      2.39      1.86      Open
  11                 1254.61      2.61      2.96      Open
  12                  128.19      0.52      0.22      Open
  21                  196.30      0.80      0.49      Open
  22                  121.81      0.35      0.08      Open
  31                   41.33      0.47      0.33      Open
  110                -792.24      1.00      0.37      Open
  111                 487.64      1.99      2.65      Open
  112                 184.18      0.52      0.18      Open
  113                  28.19      0.18      0.04      Open
  121                 141.33      0.90      0.79      Open
  122                  58.67      0.67      0.63      Open
  9                  1892.24      0.00   -200.72      Open Pump
  
