  Page 1                                    Wed Jul 06 14:19:50 2016

  ******************************************************************
  *                           E P A N E T                          *
  *                   Hydraulic and Water Quality                  *
  *                   Analysis for Pipe Networks                   *
  *                         Version 2.00.12                        *
  ******************************************************************
  
  Analysis begun Wed Jul 06 14:19:50 2016

   
  Hydraulic Status:
  -----------------------------------------------------------------------
     0:00:00: Balanced after 5 trials
     0:00:00: Reservoir River is emptying
     0:00:00: Reservoir Lake is closed
     0:00:00: Tank 1 is filling at 13.10 ft
     0:00:00: Tank 2 is emptying at 23.50 ft
     0:00:00: Tank 3 is filling at 29.00 ft
   
     1:00:00: Pump 10 changed by timer control
     1:00:00: Balanced after 7 trials
     1:00:00: Reservoir Lake is emptying
     1:00:00: Pump 10 changed from closed to open
   
     2:00:00: Balanced after 3 trials
     2:00:00: Tank 2 is filling at 20.90 ft
   
     3:00:00: Balanced after 2 trials
   
     4:00:00: Balanced after 3 trials
   
     4:13:33: Pump 335 changed by Tank 1 control
     4:13:33: Pipe 330 changed by Tank 1 control
     4:13:33: Balanced after 4 trials
     4:13:33: Pipe 330 changed from closed to open
     4:13:33: Pump 335 changed from open to closed
   
     5:00:00: Balanced after 3 trials
     5:00:00: Tank 3 is emptying at 34.30 ft
   
     6:00:00: Balanced after 3 trials
     6:00:00: Tank 3 is filling at 34.12 ft
   
     7:00:00: Balanced after 3 trials
   
     8:00:00: Balanced after 2 trials
   
     9:00:00: Balanced after 3 trials
     9:00:00: Tank 3 is emptying at 35.15 ft
   
    10:00:00: Balanced after 2 trials
    10:00:00: Tank 1 is emptying at 22.20 ft
   
    11:00:00: Balanced after 3 trials
    11:00:00: Tank 2 is emptying at 27.70 ft
   
    12:00:00: Balanced after 2 trials
    12:00:00: Tank 2 is filling at 27.64 ft
   
    13:00:00: Balanced after 3 trials
    13:00:00: Tank 1 is filling at 21.73 ft
   
    14:00:00: Balanced after 3 trials
   
    15:00:00: Pump 10 changed by timer control
    15:00:00: Balanced after 5 trials
    15:00:00: Reservoir Lake is closed
    15:00:00: Tank 1 is emptying at 21.98 ft
    15:00:00: Tank 2 is emptying at 28.20 ft
    15:00:00: Pump 10 changed from open to closed
   
    16:00:00: Balanced after 3 trials
   
    17:00:00: Balanced after 2 trials
   
    18:00:00: Balanced after 3 trials
   
    19:00:00: Balanced after 2 trials
   
    20:00:00: Balanced after 3 trials
   
    21:00:00: Balanced after 2 trials
   
    21:19:39: Pump 335 changed by Tank 1 control
    21:19:39: Pipe 330 changed by Tank 1 control
    21:19:39: Balanced after 5 trials
    21:19:39: Tank 1 is filling at 17.10 ft
    21:19:39: Tank 3 is filling at 29.68 ft
    21:19:39: Pipe 330 changed from open to closed
    21:19:39: Pump 335 changed from closed to open
   
    22:00:00: Balanced after 3 trials
    22:00:00: Tank 1 is emptying at 17.30 ft
   
    23:00:00: Balanced after 3 trials
   
    24:00:00: Balanced after 4 trials
    24:00:00: Tank 1 is filling at 15.79 ft
   
   
  Link Results at 0:00:00 hrs:
  ----------------------------------------------
                       Flow  Velocity  Headloss
  Link                  gpm       fps   /1000ft
  ----------------------------------------------
  20               -2246.30      0.09      0.00
  40                -460.32      0.02      0.00
  50                 329.21      0.01      0.00
  60               13157.88      9.33      8.93
  101                  0.00      0.00      0.00
  103                168.06      0.27      0.02
  105               -422.59      1.20      0.51
  107                 32.30      0.09      0.00
  109                -10.43      0.02      0.00
  111               -320.51      0.91      0.31
  112                498.35      1.41      0.70
  113                -80.63      0.23      0.02
  114                124.37      0.79      0.38
  115                -40.92      0.26      0.05
  116                 16.93      0.05      0.00
  117                636.29      1.81      1.10
  119               -733.46      2.08      1.43
  120               1159.13      3.29      3.33
  121               1039.29      2.95      2.72
  122                368.34      2.35      2.87
  123               9821.71      4.46      1.73
  125              13157.88      5.97      2.97
  129               2912.04      2.07      0.63
  131               2634.65      1.87      0.52
  133              -2246.30      2.29      0.94
  135                364.69      0.26      0.01
  137                 57.28      0.09      0.00
  145                307.41      1.96      2.06
  147                299.51      1.91      1.96
  149               -628.31      4.01      7.72
  151               -620.00      3.96      7.54
  153                341.99      0.97      0.35
  155                379.02      1.08      0.42
  159               -390.47      1.11      0.44
  161               -426.75      2.72      3.77
  163               -157.09      0.45      0.08
  169                216.28      1.38      1.07
  171                463.26      1.31      0.61
  173               7963.30      3.61      1.17
  175               7893.91      3.58      1.15
  177               7838.54      3.56      1.14
  179               7565.72      3.43      1.07
  180                  3.48      0.01      0.00
  181                  3.48      0.01      0.00
  183               7341.33      3.33      1.01
  185                -19.51      0.12      0.01
  186                340.16      2.17      2.48
  187               6708.97      3.05      0.85
  189               4690.03      2.13      0.44
  191              -1966.23      1.39      0.30
  193              -1637.00      1.16      0.22
  195                473.47      1.34      0.63
  197                395.52      1.12      0.45
  199                -64.80      0.18      0.02
  201               -460.32      1.31      0.60
  202                541.82      3.46      5.87
  203                236.03      1.51      1.26
  204                541.82      1.54      0.81
  205                340.16      0.96      0.34
  207                300.83      0.85      0.27
  209                160.66      1.03      0.62
  211                612.84      1.74      1.02
  213                179.50      0.51      0.11
  215                137.51      0.39      0.06
  217               -243.80      0.69      0.19
  219               -251.65      0.71      0.20
  221                251.65      1.61      1.42
  223                 45.44      0.13      0.01
  225                 68.28      0.19      0.02
  229               4690.03      3.33      1.30
  231               4419.40      3.13      1.17
  233               4439.00      3.15      1.37
  235                110.74      0.31      0.04
  237                453.73      1.29      0.59
  238                392.62      1.11      0.45
  239                 31.87      0.09      0.00
  240                392.62      1.11      0.45
  241                392.62      1.11      0.45
  243                391.45      0.62      0.11
  245                298.08      0.48      0.07
  247                241.91      0.39      0.05
  249                118.38      0.19      0.01
  251                 55.37      0.12      0.01
  257                 30.55      0.09      0.00
  261                 37.49      0.24      0.04
  263                 22.08      0.06      0.00
  269                 81.76      0.23      0.02
  271                 70.60      0.45      0.13
  273                 -9.76      0.03      0.00
  275                -22.78      0.06      0.00
  277                  5.82      0.02      0.00
  281                -28.60      0.12      0.01
  283                -46.75      0.13      0.01
  285                  2.62      0.01      0.00
  287               -125.53      0.51      0.13
  289                329.21      1.34      0.79
  291                 73.06      0.30      0.05
  293                 76.50      0.49      0.16
  295                -44.13      0.13      0.01
  297                488.19      3.12      4.84
  299                234.55      1.50      1.25
  301                234.55      1.50      1.25
  303                253.64      1.62      1.44
  305                148.10      0.42      0.07
  307                401.74      1.14      0.47
  309                208.28      1.33      1.00
  311                -70.78      0.20      0.02
  313                468.60      1.33      0.62
  315              -2110.47      1.50      0.35
  317                111.25      0.71      0.31
  319                 -0.51      0.00      0.00
  321               7549.61      3.43      1.06
  323                -79.37      0.23      0.02
  325                144.25      0.92      0.51
  329              13157.88      5.97      3.01
  330                  0.00      0.00      0.00
  333                 -0.00      0.00      0.00
  10                   0.00      0.00      0.00  Pump
  335              13157.88      0.00    -93.44  Pump
   
   
  Link Results at 1:00:00 hrs:
  ----------------------------------------------
                       Flow  Velocity  Headloss
  Link                  gpm       fps   /1000ft
  ----------------------------------------------
  20               -3038.04      0.13      0.00
  40                -996.56      0.04      0.00
  50                 307.71      0.01      0.00
  60               13062.03      9.26      8.81
  101               3435.20      4.33      4.71
  103               1846.16      2.95      1.94
  105               1220.53      3.46      3.67
  107                413.09      1.17      0.49
  109               1587.75      2.53      1.47
  111               1138.84      3.23      3.22
  112                503.62      1.43      0.71
  113                655.73      1.86      1.16
  114                248.60      1.59      1.39
  115                307.09      1.96      2.05
  116                865.52      2.46      1.94
  117               -544.83      1.55      0.82
  119               -546.21      1.55      0.83
  120                -21.77      0.06      0.00
  121                274.75      0.78      0.23
  122                251.51      1.61      1.42
  123               8943.91      4.06      1.45
  125              13062.03      5.93      2.93
  129               3785.85      2.68      1.02
  131               3469.58      2.46      0.87
  133              -3038.04      3.10      1.65
  135                397.28      0.28      0.02
  137                 82.93      0.13      0.01
  145                314.34      2.01      2.14
  147                302.92      1.93      2.00
  149               -632.03      4.03      7.81
  151               -620.00      3.96      7.54
  153                348.22      0.99      0.36
  155                401.82      1.14      0.47
  159               -418.41      1.19      0.50
  161               -470.93      3.01      4.53
  163               -142.12      0.40      0.07
  169                227.81      1.45      1.18
  171                609.10      1.73      1.01
  173               8014.88      3.64      1.19
  175               7914.41      3.59      1.16
  177               7834.25      3.56      1.14
  179               7762.99      3.52      1.12
  180                  5.04      0.01      0.00
  181                  5.04      0.01      0.00
  183               7817.51      3.55      1.13
  185                -28.25      0.18      0.02
  186                542.85      3.46      5.89
  187               7431.51      3.37      1.03
  189               5205.59      2.36      0.53
  191              -2149.60      1.52      0.36
  193              -1706.00      1.21      0.23
  195                656.05      1.86      1.16
  197                543.20      1.54      0.82
  199               -453.37      1.29      0.59
  201               -996.56      2.83      2.52
  202                642.17      4.10      8.04
  203                149.08      0.95      0.54
  204                642.17      1.82      1.12
  205                542.85      1.54      0.82
  207                602.45      1.71      0.99
  209                -65.68      0.42      0.12
  211                357.75      1.01      0.38
  213                608.54      1.73      1.01
  215                600.83      1.70      0.99
  217                -89.12      0.25      0.03
  219                -40.61      0.12      0.01
  221                 40.61      0.26      0.05
  223                678.31      1.92      1.24
  225                711.36      2.02      1.35
  229               5205.59      3.69      1.58
  231               4783.02      3.39      1.35
  233               4531.00      3.21      1.42
  235                191.09      0.54      0.12
  237                587.22      1.67      0.95
  238                737.33      2.09      1.44
  239                284.72      0.81      0.25
  240                737.33      2.09      1.44
  241                737.33      2.09      1.44
  243                735.64      1.17      0.35
  245                460.16      0.73      0.15
  247                350.23      0.56      0.09
  249                171.38      0.27      0.02
  251                 80.16      0.17      0.01
  257                 44.23      0.13      0.01
  261                 82.88      0.53      0.18
  263                 31.97      0.09      0.00
  269                258.66      0.73      0.21
  271                 73.60      0.47      0.15
  273                154.79      0.44      0.08
  275                 30.78      0.09      0.00
  277                  8.42      0.02      0.00
  281                 22.36      0.09      0.01
  283                 37.46      0.11      0.01
  285                -38.38      0.11      0.01
  287                -75.79      0.31      0.05
  289                307.71      1.26      0.69
  291                105.77      0.43      0.10
  293                 47.79      0.31      0.07
  295                 -0.92      0.00      0.00
  297                -45.01      0.29      0.06
  299                -66.18      0.42      0.12
  301                -66.18      0.42      0.12
  303                 21.17      0.14      0.01
  305               -499.82      1.42      0.70
  307               -478.65      1.36      0.65
  309                -77.84      0.50      0.16
  311                678.67      1.93      1.24
  313                145.30      0.41      0.07
  315              -2362.05      1.68      0.43
  317                119.24      0.76      0.36
  319                 71.85      0.20      0.02
  321               7739.67      3.51      1.11
  323                165.48      0.47      0.09
  325                212.45      1.36      1.04
  329              13062.03      5.93      2.97
  330                  0.00      0.00      0.00
  333                 -0.00      0.00      0.00
  10                3435.20      0.00    -72.70  Pump
  335              13062.03      0.00    -94.29  Pump
   
   
  Link Results at 2:00:00 hrs:
  ----------------------------------------------
                       Flow  Velocity  Headloss
  Link                  gpm       fps   /1000ft
  ----------------------------------------------
  20               -3619.73      0.15      0.00
  40               -1249.69      0.05      0.00
  50                -132.71      0.01      0.00
  60               12972.12      9.20      8.70
  101               3330.25      4.20      4.45
  103               1781.95      2.84      1.82
  105               1270.97      3.61      3.95
  107                408.15      1.16      0.48
  109               1587.48      2.53      1.47
  111               1249.64      3.54      3.83
  112                434.96      1.23      0.54
  113                711.21      2.02      1.35
  114                254.36      1.62      1.45
  115                328.38      2.10      2.32
  116                936.35      2.66      2.24
  117               -665.18      1.89      1.19
  119               -437.00      1.24      0.55
  120               -284.45      0.81      0.25
  121                 89.36      0.25      0.03
  122                228.14      1.46      1.18
  123               8430.48      3.83      1.30
  125              12972.12      5.89      2.89
  129               4252.72      3.02      1.26
  131               3987.51      2.83      1.12
  133              -3619.73      3.70      2.28
  135                342.00      0.24      0.01
  137                 62.42      0.10      0.00
  145                279.58      1.78      1.72
  147                270.98      1.73      1.63
  149               -629.05      4.02      7.74
  151               -620.00      3.96      7.54
  153                372.45      1.06      0.41
  155                412.79      1.17      0.49
  159               -425.27      1.21      0.52
  161               -464.80      2.97      4.42
  163               -134.15      0.38      0.06
  169                198.64      1.27      0.92
  171                541.59      1.54      0.81
  173               7916.19      3.59      1.16
  175               7840.58      3.56      1.14
  177               7780.25      3.53      1.12
  179               7824.07      3.55      1.13
  180                  3.80      0.01      0.00
  181                  3.80      0.01      0.00
  183               7911.57      3.59      1.16
  185                -21.26      0.14      0.01
  186                565.05      3.61      6.35
  187               7579.96      3.44      1.07
  189               5218.04      2.37      0.54
  191              -2304.48      1.63      0.41
  193              -1719.00      1.22      0.24
  195                809.88      2.30      1.72
  197                724.95      2.06      1.40
  199               -524.74      1.49      0.77
  201              -1249.69      3.55      3.83
  202                648.21      4.14      8.18
  203                120.61      0.77      0.36
  204                648.21      1.84      1.14
  205                565.05      1.60      0.88
  207                645.35      1.83      1.13
  209                -84.93      0.54      0.19
  211                310.35      0.88      0.29
  213                649.98      1.84      1.14
  215                632.03      1.79      1.08
  217                -28.28      0.08      0.00
  219                 66.88      0.19      0.02
  221                -66.88      0.43      0.12
  223                741.27      2.10      1.46
  225                766.15      2.17      1.55
  229               5218.04      3.70      1.59
  231               4825.72      3.42      1.37
  233               4511.00      3.20      1.41
  235                218.11      0.62      0.15
  237                649.94      1.84      1.14
  238                919.18      2.61      2.17
  239                370.55      1.05      0.40
  240                919.18      2.61      2.17
  241                919.18      2.61      2.17
  243                917.91      1.46      0.53
  245                431.87      0.69      0.13
  247                263.57      0.42      0.05
  249                128.98      0.21      0.01
  251                 60.33      0.13      0.01
  257                 33.29      0.09      0.00
  261                147.95      0.94      0.53
  263                 24.06      0.07      0.00
  269                473.37      1.34      0.63
  271                -30.18      0.19      0.03
  273                480.77      1.36      0.65
  275                159.60      0.45      0.08
  277                  6.34      0.02      0.00
  281                153.26      0.63      0.19
  283                256.04      0.73      0.20
  285               -125.43      0.36      0.05
  287                175.94      0.72      0.25
  289               -132.71      0.54      0.15
  291                 79.60      0.33      0.06
  293                -95.33      0.61      0.24
  295                130.61      0.37      0.06
  297               -145.68      0.93      0.52
  299                -95.49      0.61      0.24
  301                -95.49      0.61      0.24
  303                -50.19      0.32      0.07
  305               -519.50      1.47      0.75
  307               -569.68      1.62      0.89
  309               -105.05      0.67      0.28
  311                737.08      2.09      1.44
  313                 85.96      0.24      0.03
  315              -2528.88      1.79      0.48
  317                120.96      0.77      0.37
  319                 97.15      0.28      0.03
  321               7806.52      3.54      1.13
  323                249.59      0.71      0.19
  325                224.40      1.43      1.15
  329              12972.12      5.89      2.93
  330                  0.00      0.00      0.00
  333                 -0.00      0.00      0.00
  10                3330.25      0.00    -74.37  Pump
  335              12972.12      0.00    -95.08  Pump
   
   
  Link Results at 3:00:00 hrs:
  ----------------------------------------------
                       Flow  Velocity  Headloss
  Link                  gpm       fps   /1000ft
  ----------------------------------------------
  20               -3586.00      0.15      0.00
  40               -1176.83      0.05      0.00
  50                -164.68      0.01      0.00
  60               12929.88      9.17      8.64
  101               3307.91      4.17      4.39
  103               1770.64      2.83      1.80
  105               1263.74      3.58      3.91
  107                406.20      1.15      0.48
  109               1578.84      2.52      1.45
  111               1245.62      3.53      3.81
  112                435.35      1.24      0.54
  113                710.77      2.02      1.35
  114                254.28      1.62      1.45
  115                327.52      2.09      2.31
  116                936.24      2.66      2.24
  117               -662.60      1.88      1.18
  119               -437.14      1.24      0.55
  120               -283.99      0.81      0.25
  121                 89.07      0.25      0.03
  122                228.03      1.46      1.18
  123               8425.90      3.82      1.30
  125              12929.88      5.87      2.88
  129               4216.00      2.99      1.24
  131               3952.43      2.80      1.10
  133              -3586.00      3.66      2.24
  135                341.00      0.24      0.01
  137                 61.56      0.10      0.00
  145                279.44      1.78      1.72
  147                270.95      1.73      1.63
  149               -628.93      4.01      7.74
  151               -620.00      3.96      7.54
  153                372.16      1.06      0.41
  155                411.94      1.17      0.49
  159               -424.26      1.20      0.52
  161               -463.24      2.96      4.39
  163               -134.31      0.38      0.06
  169                197.91      1.26      0.91
  171                536.98      1.52      0.80
  173               7919.28      3.59      1.16
  175               7844.70      3.56      1.14
  177               7785.20      3.53      1.12
  179               7830.43      3.55      1.14
  180                  3.74      0.01      0.00
  181                  3.74      0.01      0.00
  183               7919.10      3.59      1.16
  185                -20.97      0.13      0.01
  186                566.46      3.62      6.38
  187               7593.28      3.45      1.07
  189               5293.89      2.40      0.55
  191              -2242.74      1.59      0.39
  193              -1719.00      1.22      0.24
  195                747.76      2.12      1.48
  197                664.00      1.88      1.19
  199               -512.83      1.45      0.74
  201              -1176.83      3.34      3.43
  202                658.59      4.20      8.43
  203                129.06      0.82      0.41
  204                658.59      1.87      1.17
  205                566.46      1.61      0.88
  207                641.90      1.82      1.12
  209                -84.29      0.54      0.19
  211                304.86      0.86      0.28
  213                650.76      1.85      1.14
  215                632.17      1.79      1.08
  217                -27.42      0.08      0.00
  219                 67.98      0.19      0.02
  221                -67.98      0.43      0.13
  223                741.27      2.10      1.46
  225                765.81      2.17      1.55
  229               5293.89      3.75      1.63
  231               4901.49      3.48      1.41
  233               4582.00      3.25      1.45
  235                220.58      0.63      0.15
  237                662.06      1.88      1.18
  238                940.38      2.67      2.26
  239                378.24      1.07      0.42
  240                940.38      2.67      2.26
  241                940.38      2.67      2.26
  243                939.13      1.50      0.56
  245                433.96      0.69      0.13
  247                259.96      0.41      0.05
  249                127.21      0.20      0.01
  251                 59.50      0.12      0.01
  257                 32.83      0.09      0.00
  261                153.92      0.98      0.57
  263                 23.73      0.07      0.00
  269                492.68      1.40      0.68
  271                -37.77      0.24      0.04
  273                507.98      1.44      0.72
  275                170.07      0.48      0.10
  277                  6.25      0.02      0.00
  281                163.82      0.67      0.22
  283                273.67      0.78      0.23
  285               -132.45      0.38      0.06
  287                194.92      0.80      0.30
  289               -164.68      0.67      0.22
  291                 78.51      0.32      0.06
  293               -106.43      0.68      0.29
  295                141.22      0.40      0.07
  297               -145.03      0.93      0.51
  299                -95.14      0.61      0.23
  301                -95.14      0.61      0.23
  303                -49.89      0.32      0.07
  305               -517.57      1.47      0.75
  307               -567.46      1.61      0.89
  309               -105.98      0.68      0.29
  311                738.15      2.09      1.44
  313                 80.84      0.23      0.02
  315              -2466.76      1.75      0.46
  317                122.99      0.79      0.38
  319                 97.59      0.28      0.03
  321               7813.12      3.55      1.13
  323                255.25      0.72      0.20
  325                224.02      1.43      1.14
  329              12929.88      5.87      2.91
  330                  0.00      0.00      0.00
  333                 -0.00      0.00      0.00
  10                3307.91      0.00    -74.72  Pump
  335              12929.88      0.00    -95.45  Pump
   
   
  Link Results at 4:00:00 hrs:
  ----------------------------------------------
                       Flow  Velocity  Headloss
  Link                  gpm       fps   /1000ft
  ----------------------------------------------
  20               -4501.38      0.19      0.00
  40               -1600.38      0.07      0.00
  50                -569.30      0.02      0.00
  60               12789.79      9.07      8.47
  101               3139.84      3.96      3.99
  103               1673.92      2.67      1.62
  105               1321.56      3.75      4.25
  107                405.13      1.15      0.48
  109               1572.68      2.51      1.44
  111               1396.82      3.96      4.71
  112                307.79      0.87      0.29
  113                771.15      2.19      1.57
  114                257.60      1.64      1.48
  115                363.60      2.32      2.80
  116               1013.54      2.88      2.60
  117               -813.55      2.31      1.73
  119               -241.38      0.68      0.18
  120               -648.27      1.84      1.14
  121               -261.84      0.74      0.21
  122                165.55      1.06      0.65
  123               7634.33      3.47      1.08
  125              12789.78      5.81      2.82
  129               4958.27      3.52      1.68
  131               4771.01      3.38      1.56
  133              -4501.38      4.60      3.41
  135                256.21      0.18      0.01
  137                 32.49      0.05      0.00
  145                223.72      1.43      1.14
  147                219.24      1.40      1.10
  149               -624.71      3.99      7.64
  151               -620.00      3.96      7.54
  153                412.96      1.17      0.49
  155                433.96      1.23      0.54
  159               -440.45      1.25      0.56
  161               -461.03      2.94      4.35
  163               -119.03      0.34      0.05
  169                152.60      0.97      0.56
  171                451.80      1.28      0.58
  173               7696.93      3.49      1.10
  175               7657.57      3.48      1.09
  177               7626.17      3.46      1.08
  179               7757.64      3.52      1.12
  180                  1.98      0.00      0.00
  181                  1.98      0.00      0.00
  183               7895.98      3.58      1.15
  185                -11.07      0.07      0.00
  186                597.56      3.81      7.04
  187               7686.00      3.49      1.10
  189               5101.70      2.32      0.51
  191              -2554.40      1.81      0.49
  193              -1791.00      1.27      0.25
  195               1004.12      2.85      2.55
  197                959.91      2.72      2.35
  199               -640.47      1.82      1.11
  201              -1600.38      4.54      6.06
  202                634.99      4.05      7.88
  203                 56.93      0.36      0.09
  204                634.99      1.80      1.09
  205                597.56      1.70      0.98
  207                697.40      1.98      1.30
  209               -125.57      0.80      0.39
  211                198.92      0.56      0.13
  213                723.13      2.05      1.39
  215                695.64      1.97      1.29
  217                 27.26      0.08      0.00
  219                143.48      0.41      0.07
  221               -143.48      0.92      0.50
  223                812.63      2.31      1.73
  225                825.58      2.34      1.78
  229               5101.70      3.62      1.52
  231               4815.58      3.42      1.37
  233               4531.00      3.21      1.42
  235                195.44      0.55      0.12
  237                658.42      1.87      1.17
  238                978.69      2.78      2.44
  239                373.01      1.06      0.41
  240                978.69      2.78      2.44
  241                978.69      2.78      2.44
  243                978.03      1.56      0.60
  245                337.90      0.54      0.08
  247                137.20      0.22      0.02
  249                 67.14      0.11      0.00
  251                 31.40      0.07      0.00
  257                 17.33      0.05      0.00
  261                190.11      1.21      0.84
  263                 12.52      0.04      0.00
  269                633.54      1.80      1.09
  271               -128.80      0.82      0.41
  273                750.48      2.13      1.49
  275                270.43      0.77      0.22
  277                  3.30      0.01      0.00
  281                267.13      1.09      0.53
  283                446.15      1.27      0.57
  285               -195.09      0.55      0.12
  287                408.73      1.67      1.17
  289               -569.30      2.33      2.17
  291                 41.44      0.17      0.02
  293               -232.70      1.49      1.23
  295                251.06      0.71      0.20
  297               -220.87      1.41      1.11
  299               -130.51      0.83      0.42
  301               -130.51      0.83      0.42
  303                -90.36      0.58      0.21
  305               -592.68      1.68      0.96
  307               -683.04      1.94      1.25
  309               -147.48      0.94      0.53
  311                843.13      2.39      1.85
  313                -41.80      0.12      0.01
  315              -2795.12      1.98      0.58
  317                122.34      0.78      0.37
  319                 73.10      0.21      0.02
  321               7748.50      3.52      1.11
  323                250.68      0.71      0.20
  325                240.72      1.54      1.31
  329              12789.78      5.81      2.86
  330                  0.00      0.00      0.00
  333                 -0.00      0.00      0.00
  10                3139.84      0.00    -77.31  Pump
  335              12789.79      0.00    -96.68  Pump
   
   
  Link Results at 5:00:00 hrs:
  ----------------------------------------------
                       Flow  Velocity  Headloss
  Link                  gpm       fps   /1000ft
  ----------------------------------------------
  20                 476.98      0.02      0.00
  40                -475.63      0.02      0.00
  50                -248.17      0.01      0.00
  60                7751.18      5.50      3.35
  101               3279.91      4.14      4.32
  103               1737.01      2.77      1.74
  105               1368.14      3.88      4.53
  107                411.17      1.17      0.49
  109               1614.46      2.58      1.52
  111               1401.58      3.98      4.74
  112                214.49      0.61      0.15
  113                719.45      2.04      1.38
  114                234.20      1.49      1.24
  115                360.91      2.30      2.77
  116                935.24      2.65      2.24
  117               -832.43      2.36      1.80
  119               -135.72      0.38      0.06
  120               -697.87      1.98      1.30
  121               -343.28      0.97      0.35
  122                109.44      0.70      0.30
  123               6418.73      2.91      0.79
  125               6532.18      2.96      0.81
  129                -34.29      0.02      0.00
  131               -219.80      0.16      0.01
  133                476.98      0.49      0.05
  135                240.93      0.17      0.01
  137                 39.33      0.06      0.00
  145                201.60      1.29      0.94
  147                196.18      1.25      0.89
  149               -365.70      2.33      2.84
  151               -360.00      2.30      2.75
  153                178.58      0.51      0.10
  155                204.00      0.58      0.13
  159               -211.87      0.60      0.14
  161               -236.77      1.51      1.27
  163               -102.92      0.29      0.04
  169                143.56      0.92      0.50
  171                266.78      0.76      0.22
  173               6687.77      3.04      0.85
  175               6640.13      3.01      0.84
  177               6602.11      3.00      0.83
  179               6727.57      3.05      0.86
  180                  2.39      0.00      0.00
  181                  2.39      0.00      0.00
  183               6854.98      3.11      0.89
  185                -13.40      0.09      0.01
  186                524.84      3.35      5.54
  187               6714.11      3.05      0.85
  189               4976.31      2.26      0.49
  191              -1701.61      1.21      0.23
  193              -1819.00      1.29      0.26
  195                 85.25      0.24      0.03
  197                 31.74      0.09      0.00
  199               -443.89      1.26      0.56
  201               -475.63      1.35      0.64
  202                624.23      3.98      7.63
  203                122.99      0.79      0.38
  204                624.23      1.77      1.06
  205                524.84      1.49      0.77
  207                566.89      1.61      0.89
  209               -120.90      0.77      0.36
  211                127.47      0.36      0.06
  213                645.74      1.83      1.13
  215                620.45      1.76      1.05
  217                 29.27      0.08      0.00
  219                140.00      0.40      0.07
  221               -140.00      0.89      0.48
  223                750.36      2.13      1.49
  225                766.03      2.17      1.55
  229               4976.31      3.53      1.46
  231               4741.14      3.36      1.33
  233               4582.00      3.25      1.45
  235                125.39      0.36      0.05
  237                568.64      1.61      0.89
  238                743.75      2.11      1.46
  239                238.96      0.68      0.18
  240                743.75      2.11      1.46
  241                743.75      2.11      1.46
  243                742.95      1.19      0.36
  245                310.29      0.50      0.07
  247                166.09      0.27      0.02
  249                 81.27      0.13      0.01
  251                 38.01      0.08      0.00
  257                 20.98      0.06      0.00
  261                131.37      0.84      0.43
  263                 15.16      0.04      0.00
  269                424.69      1.20      0.52
  271                -57.17      0.36      0.09
  273                467.50      1.33      0.62
  275                162.19      0.46      0.09
  277                  3.99      0.01      0.00
  281                158.20      0.65      0.20
  283                264.26      0.75      0.22
  285               -121.67      0.35      0.05
  287                215.12      0.88      0.36
  289               -248.17      1.01      0.47
  291                 50.16      0.20      0.02
  293               -120.37      0.77      0.36
  295                142.60      0.40      0.07
  297               -245.14      1.56      1.35
  299               -140.29      0.90      0.48
  301               -140.29      0.90      0.48
  303               -104.86      0.67      0.28
  305               -587.29      1.67      0.95
  307               -692.14      1.96      1.28
  309               -138.46      0.88      0.47
  311                758.91      2.15      1.52
  313                -75.17      0.21      0.02
  315              -1904.25      1.35      0.29
  317                120.86      0.77      0.36
  319                  4.54      0.01      0.00
  321               6716.51      3.05      0.86
  323                118.10      0.34      0.05
  325                202.65      1.29      0.95
  329               7751.18      3.52      1.13
  330               7751.18      3.52      1.13
  333               7751.18      3.52      1.13
  10                3279.91      0.00    -75.16  Pump
  335                  0.00      0.00      0.00  Pump
   
   
  Link Results at 6:00:00 hrs:
  ----------------------------------------------
                       Flow  Velocity  Headloss
  Link                  gpm       fps   /1000ft
  ----------------------------------------------
  20                -869.37      0.04      0.00
  40                -508.82      0.02      0.00
  50                -264.91      0.01      0.00
  60                7682.94      5.45      3.30
  101               3260.06      4.11      4.28
  103               1726.24      2.75      1.72
  105               1372.36      3.89      4.56
  107                411.34      1.17      0.49
  109               1613.02      2.57      1.51
  111               1416.33      4.02      4.83
  112                194.36      0.55      0.12
  113                721.86      2.05      1.39
  114                233.49      1.49      1.24
  115                364.90      2.33      2.82
  116                938.34      2.66      2.25
  117               -845.95      2.40      1.86
  119               -107.23      0.30      0.04
  120               -732.26      2.08      1.42
  121               -380.65      1.08      0.42
  122                 93.59      0.60      0.23
  123               6267.38      2.84      0.75
  125               7682.94      3.49      1.10
  129               1286.57      0.91      0.14
  131               1111.15      0.79      0.11
  133               -869.37      0.89      0.16
  135                226.78      0.16      0.01
  137                 36.34      0.06      0.00
  145                190.44      1.22      0.85
  147                185.43      1.18      0.81
  149               -365.27      2.33      2.83
  151               -360.00      2.30      2.75
  153                188.21      0.53      0.11
  155                211.69      0.60      0.14
  159               -218.96      0.62      0.15
  161               -241.97      1.54      1.32
  163                -99.11      0.28      0.04
  169                136.66      0.87      0.46
  171                265.67      0.75      0.22
  173               6584.26      2.99      0.82
  175               6540.24      2.97      0.81
  177               6505.12      2.95      0.81
  179               6638.49      3.01      0.84
  180                  2.21      0.00      0.00
  181                  2.21      0.00      0.00
  183               6770.66      3.07      0.87
  185                -12.38      0.08      0.01
  186                523.18      3.34      5.50
  187               6649.72      3.02      0.84
  189               4929.71      2.24      0.48
  191              -1686.57      1.20      0.23
  193              -1777.00      1.26      0.25
  195                111.07      0.32      0.04
  197                 61.63      0.17      0.01
  199               -447.19      1.27      0.57
  201               -508.82      1.44      0.73
  202                618.96      3.95      7.51
  203                117.58      0.75      0.35
  204                618.96      1.76      1.04
  205                523.18      1.48      0.76
  207                564.78      1.60      0.88
  209               -125.97      0.80      0.39
  211                108.57      0.31      0.04
  213                649.14      1.84      1.14
  215                623.48      1.77      1.06
  217                 34.94      0.10      0.01
  219                146.80      0.42      0.07
  221               -146.80      0.94      0.52
  223                753.69      2.14      1.50
  225                768.18      2.18      1.56
  229               4929.71      3.50      1.43
  231               4713.17      3.34      1.32
  233               4572.00      3.24      1.45
  235                115.12      0.33      0.05
  237                558.19      1.58      0.86
  238                722.79      2.05      1.39
  239                223.58      0.63      0.16
  240                722.79      2.05      1.39
  241                722.79      2.05      1.39
  243                722.05      1.15      0.34
  245                294.77      0.47      0.06
  247                153.45      0.24      0.02
  249                 75.09      0.12      0.01
  251                 35.12      0.07      0.00
  257                 19.38      0.05      0.00
  261                129.47      0.83      0.41
  263                 14.01      0.04      0.00
  269                419.91      1.19      0.51
  271                -60.91      0.39      0.10
  273                467.55      1.33      0.62
  275                163.20      0.46      0.09
  277                  3.69      0.01      0.00
  281                159.51      0.65      0.21
  283                266.43      0.76      0.22
  285               -121.65      0.35      0.05
  287                221.34      0.90      0.38
  289               -264.91      1.08      0.53
  291                 46.34      0.19      0.02
  293               -124.25      0.79      0.38
  295                144.78      0.41      0.07
  297               -258.02      1.65      1.49
  299               -145.80      0.93      0.52
  301               -145.80      0.93      0.52
  303               -112.22      0.72      0.32
  305               -587.94      1.67      0.95
  307               -700.15      1.99      1.31
  309               -142.39      0.91      0.49
  311                765.86      2.17      1.55
  313                -92.94      0.26      0.03
  315              -1888.07      1.34      0.28
  317                120.33      0.77      0.36
  319                 -5.21      0.01      0.00
  321               6628.28      3.01      0.83
  323                103.25      0.29      0.04
  325                201.50      1.29      0.94
  329               7682.94      3.49      1.11
  330               7682.94      3.49      1.11
  333               7682.94      3.49      1.10
  10                3260.06      0.00    -75.47  Pump
  335                  0.00      0.00      0.00  Pump
   
   
  Link Results at 7:00:00 hrs:
  ----------------------------------------------
                       Flow  Velocity  Headloss
  Link                  gpm       fps   /1000ft
  ----------------------------------------------
  20                -844.25      0.04      0.00
  40                -268.68      0.01      0.00
  50                -125.26      0.01      0.00
  60                7664.82      5.44      3.28
  101               3289.86      4.15      4.35
  103               1741.89      2.78      1.74
  105               1344.72      3.81      4.39
  107                405.98      1.15      0.48
  109               1599.37      2.55      1.49
  111               1351.77      3.83      4.43
  112                239.71      0.68      0.18
  113                697.02      1.98      1.30
  114                229.42      1.46      1.20
  115                347.52      2.22      2.58
  116                905.03      2.57      2.11
  117               -793.89      2.25      1.65
  119               -177.36      0.50      0.10
  120               -614.30      1.74      1.03
  121               -271.28      0.77      0.23
  122                123.72      0.79      0.38
  123               6327.17      2.87      0.77
  125               7664.82      3.48      1.09
  129               1169.38      0.83      0.12
  131               1006.78      0.71      0.09
  133               -844.25      0.86      0.15
  135                143.63      0.10      0.00
  137                 45.74      0.07      0.00
  145                 97.89      0.62      0.25
  147                 91.58      0.58      0.22
  149                 -6.63      0.04      0.00
  151                  0.00      0.00      0.00
  153                -74.41      0.21      0.02
  155                -44.85      0.13      0.01
  159                 35.70      0.10      0.01
  161                  6.73      0.04      0.00
  163                -66.55      0.19      0.02
  169                113.81      0.73      0.33
  171                 81.31      0.23      0.02
  173               6671.70      3.03      0.84
  175               6616.28      3.00      0.83
  177               6572.07      2.98      0.82
  179               6677.81      3.03      0.85
  180                  2.78      0.01      0.00
  181                  2.78      0.01      0.00
  183               6791.86      3.08      0.87
  185                -15.58      0.10      0.01
  186                513.69      3.28      5.32
  187               6619.27      3.00      0.83
  189               5007.88      2.27      0.50
  191              -1569.30      1.11      0.20
  193              -1842.00      1.31      0.27
  195                -76.37      0.22      0.02
  197               -138.61      0.39      0.07
  199               -407.29      1.16      0.48
  201               -268.68      0.76      0.22
  202                626.35      4.00      7.68
  203                140.11      0.89      0.48
  204                626.35      1.78      1.07
  205                513.69      1.46      0.74
  207                547.40      1.55      0.83
  209               -106.34      0.68      0.29
  211                157.01      0.45      0.08
  213                620.03      1.76      1.05
  215                595.87      1.69      0.97
  217                 16.69      0.05      0.00
  219                122.64      0.35      0.05
  221               -122.64      0.78      0.37
  223                724.35      2.05      1.39
  225                742.58      2.11      1.46
  229               5007.88      3.55      1.47
  231               4757.70      3.37      1.34
  233               4613.00      3.27      1.47
  235                122.51      0.35      0.05
  237                557.86      1.58      0.86
  238                701.65      1.99      1.31
  239                218.04      0.62      0.15
  240                701.65      1.99      1.31
  241                701.65      1.99      1.31
  243                700.72      1.12      0.32
  245                323.14      0.52      0.08
  247                193.17      0.31      0.03
  249                 94.52      0.15      0.01
  251                 44.21      0.09      0.00
  257                 24.40      0.07      0.00
  261                115.06      0.73      0.33
  263                 17.63      0.05      0.00
  269                368.30      1.04      0.40
  271                -28.75      0.18      0.03
  273                380.35      1.08      0.42
  275                127.45      0.36      0.06
  277                  4.64      0.01      0.00
  281                122.81      0.50      0.13
  283                205.16      0.58      0.13
  285                -99.17      0.28      0.04
  287                146.67      0.60      0.18
  289               -125.26      0.51      0.13
  291                 58.34      0.24      0.03
  293                -80.15      0.51      0.17
  295                106.00      0.30      0.04
  297               -219.30      1.40      1.10
  299               -128.66      0.82      0.41
  301               -128.66      0.82      0.41
  303                -90.64      0.58      0.21
  305               -574.60      1.63      0.91
  307               -665.24      1.89      1.19
  309               -126.91      0.81      0.40
  311                722.78      2.05      1.39
  313                -39.33      0.11      0.01
  315              -1765.63      1.25      0.25
  317                121.07      0.77      0.37
  319                  1.44      0.00      0.00
  321               6664.95      3.03      0.84
  323                 96.97      0.28      0.03
  325                196.33      1.25      0.90
  329               7664.82      3.48      1.11
  330               7664.82      3.48      1.11
  333               7664.82      3.48      1.11
  10                3289.86      0.00    -75.01  Pump
  335                  0.00      0.00      0.00  Pump
   
   
  Link Results at 8:00:00 hrs:
  ----------------------------------------------
                       Flow  Velocity  Headloss
  Link                  gpm       fps   /1000ft
  ----------------------------------------------
  20                -986.40      0.04      0.00
  40                -355.87      0.01      0.00
  50                -170.66      0.01      0.00
  60                7631.38      5.41      3.26
  101               3265.74      4.12      4.29
  103               1729.18      2.76      1.72
  105               1354.21      3.84      4.44
  107                407.33      1.16      0.48
  109               1601.31      2.56      1.49
  111               1379.16      3.91      4.60
  112                218.67      0.62      0.15
  113                707.85      2.01      1.34
  114                231.00      1.47      1.21
  115                354.88      2.27      2.68
  116                919.64      2.61      2.17
  117               -816.92      2.32      1.74
  119               -144.81      0.41      0.07
  120               -666.50      1.89      1.20
  121               -322.43      0.91      0.31
  122                107.39      0.69      0.29
  123               6196.96      2.81      0.74
  125               7631.38      3.46      1.08
  129               1287.06      0.91      0.14
  131               1134.06      0.80      0.11
  133               -986.40      1.01      0.21
  135                130.70      0.09      0.00
  137                 41.04      0.07      0.00
  145                 89.66      0.57      0.21
  147                 84.01      0.54      0.19
  149                 -5.95      0.04      0.00
  151                  0.00      0.00      0.00
  153                -68.60      0.19      0.02
  155                -42.07      0.12      0.01
  159                 33.86      0.10      0.00
  161                  7.88      0.05      0.00
  163                -66.83      0.19      0.02
  169                109.23      0.70      0.30
  171                 64.00      0.18      0.02
  173               6630.38      3.01      0.84
  175               6580.66      2.99      0.82
  177               6540.99      2.97      0.81
  179               6659.87      3.02      0.84
  180                  2.50      0.01      0.00
  181                  2.50      0.01      0.00
  183               6782.48      3.08      0.87
  185                -13.98      0.09      0.01
  186                518.22      3.31      5.41
  187               6634.96      3.01      0.84
  189               4992.26      2.27      0.49
  191              -1604.94      1.14      0.21
  193              -1815.00      1.29      0.26
  195                -11.46      0.03      0.00
  197                -67.31      0.19      0.02
  199               -423.17      1.20      0.52
  201               -355.87      1.01      0.37
  202                625.27      3.99      7.66
  203                131.67      0.84      0.43
  204                625.27      1.77      1.06
  205                518.22      1.47      0.75
  207                554.84      1.57      0.85
  209               -115.16      0.74      0.33
  211                133.53      0.38      0.06
  213                633.38      1.80      1.09
  215                608.35      1.73      1.01
  217                 25.36      0.07      0.00
  219                134.05      0.38      0.06
  221               -134.05      0.86      0.44
  223                737.36      2.09      1.44
  225                753.72      2.14      1.50
  229               4992.26      3.54      1.46
  231               4766.83      3.38      1.34
  233               4643.00      3.29      1.49
  235                110.88      0.31      0.04
  237                551.82      1.57      0.84
  238                687.79      1.95      1.27
  239                202.59      0.57      0.13
  240                687.79      1.95      1.27
  241                687.79      1.95      1.27
  243                686.96      1.10      0.31
  245                303.52      0.48      0.07
  247                173.31      0.28      0.02
  249                 84.81      0.14      0.01
  251                 39.67      0.08      0.00
  257                 21.89      0.06      0.00
  261                116.83      0.75      0.34
  263                 15.82      0.04      0.00
  269                375.12      1.06      0.41
  271                -39.39      0.25      0.05
  273                399.52      1.13      0.46
  275                136.18      0.39      0.06
  277                  4.17      0.01      0.00
  281                132.01      0.54      0.14
  283                220.52      0.63      0.15
  285               -104.06      0.30      0.04
  287                168.51      0.69      0.23
  289               -170.66      0.70      0.23
  291                 52.34      0.21      0.03
  293                -93.27      0.60      0.23
  295                116.46      0.33      0.05
  297               -236.68      1.51      1.27
  299               -136.28      0.87      0.46
  301               -136.28      0.87      0.46
  303               -100.41      0.64      0.26
  305               -580.24      1.65      0.92
  307               -680.64      1.93      1.24
  309               -134.14      0.86      0.44
  311                742.49      2.11      1.46
  313                -65.07      0.18      0.02
  315              -1803.54      1.28      0.26
  317                121.59      0.78      0.37
  319                -10.70      0.03      0.00
  321               6648.33      3.02      0.84
  323                 81.00      0.23      0.02
  325                198.60      1.27      0.92
  329               7631.38      3.46      1.10
  330               7631.38      3.46      1.10
  333               7631.38      3.46      1.10
  10                3265.74      0.00    -75.38  Pump
  335                  0.00      0.00      0.00  Pump
   
   
  Link Results at 9:00:00 hrs:
  ----------------------------------------------
                       Flow  Velocity  Headloss
  Link                  gpm       fps   /1000ft
  ----------------------------------------------
  20                 773.71      0.03      0.00
  40                 -22.08      0.00      0.00
  50                 -72.91      0.00      0.00
  60                7717.07      5.47      3.32
  101               3291.14      4.15      4.35
  103               1740.87      2.78      1.74
  105               1341.32      3.81      4.37
  107                403.89      1.15      0.47
  109               1594.35      2.54      1.48
  111               1339.81      3.80      4.36
  112                225.19      0.64      0.16
  113                682.46      1.94      1.25
  114                223.85      1.43      1.14
  115                343.78      2.19      2.53
  116                884.29      2.51      2.02
  117               -788.53      2.24      1.63
  119               -162.56      0.46      0.09
  120               -612.48      1.74      1.02
  121               -276.86      0.79      0.23
  122                115.99      0.74      0.34
  123               6118.73      2.78      0.72
  125               5851.07      2.66      0.66
  129               -429.44      0.30      0.02
  131               -594.17      0.42      0.03
  133                773.71      0.79      0.13
  135                160.12      0.11      0.00
  137                 47.02      0.08      0.00
  145                113.09      0.72      0.32
  147                106.61      0.68      0.29
  149                 -6.82      0.04      0.00
  151                 -0.00      0.00      0.00
  153                -88.96      0.25      0.03
  155                -58.56      0.17      0.01
  159                 49.16      0.14      0.01
  161                 19.38      0.12      0.01
  163                -65.98      0.19      0.02
  169                114.57      0.73      0.33
  171                 73.56      0.21      0.02
  173               6463.90      2.93      0.80
  175               6406.93      2.91      0.78
  177               6361.47      2.89      0.77
  179               6463.93      2.93      0.80
  180                  2.86      0.01      0.00
  181                  2.86      0.01      0.00
  183               6574.33      2.98      0.82
  185                -16.02      0.10      0.01
  186                500.95      3.20      5.08
  187               6410.82      2.91      0.78
  189               5010.54      2.27      0.50
  191              -1357.01      0.96      0.15
  193              -1825.00      1.29      0.26
  195               -280.14      0.79      0.24
  197               -344.13      0.98      0.35
  199               -366.21      1.04      0.39
  201                -22.08      0.06      0.00
  202                626.47      4.00      7.68
  203                153.74      0.98      0.57
  204                626.47      1.78      1.07
  205                500.95      1.42      0.70
  207                519.95      1.47      0.75
  209               -101.19      0.65      0.26
  211                147.49      0.42      0.07
  213                602.14      1.71      0.99
  215                577.83      1.64      0.92
  217                 15.43      0.04      0.00
  219                119.84      0.34      0.05
  221               -119.84      0.76      0.36
  223                707.66      2.01      1.34
  225                726.41      2.06      1.40
  229               5010.54      3.55      1.47
  231               4765.56      3.38      1.34
  233               4643.00      3.29      1.49
  235                113.72      0.32      0.05
  237                546.96      1.55      0.83
  238                665.46      1.89      1.19
  239                194.83      0.55      0.12
  240                665.46      1.89      1.19
  241                665.46      1.89      1.19
  243                664.50      1.06      0.29
  245                318.90      0.51      0.08
  247                198.58      0.32      0.03
  249                 97.17      0.16      0.01
  251                 45.45      0.09      0.00
  257                 25.08      0.07      0.00
  261                104.98      0.67      0.28
  263                 18.13      0.05      0.00
  269                336.07      0.95      0.34
  271                -16.26      0.10      0.01
  273                335.15      0.95      0.33
  275                110.10      0.31      0.04
  277                  4.77      0.01      0.00
  281                105.33      0.43      0.10
  283                175.98      0.50      0.10
  285                -87.52      0.25      0.03
  287                115.43      0.47      0.11
  289                -72.91      0.30      0.05
  291                 59.97      0.24      0.03
  293                -61.88      0.39      0.11
  295                 88.46      0.25      0.03
  297               -219.63      1.40      1.10
  299               -128.42      0.82      0.41
  301               -128.42      0.82      0.41
  303                -91.21      0.58      0.22
  305               -568.90      1.61      0.89
  307               -660.11      1.87      1.17
  309               -123.62      0.79      0.38
  311                701.45      1.99      1.31
  313                -40.36      0.11      0.01
  315              -1544.86      1.10      0.19
  317                121.34      0.77      0.37
  319                 -7.62      0.02      0.00
  321               6450.71      2.93      0.79
  323                 73.49      0.21      0.02
  325                187.85      1.20      0.83
  329               7717.07      3.50      1.12
  330               7717.07      3.50      1.11
  333               7717.07      3.50      1.11
  10                3291.14      0.00    -74.99  Pump
  335                  0.00      0.00      0.00  Pump
   
   
  Link Results at 10:00:00 hrs:
  ----------------------------------------------
                       Flow  Velocity  Headloss
  Link                  gpm       fps   /1000ft
  ----------------------------------------------
  20                 613.26      0.03      0.00
  40                  13.66      0.00      0.00
  50                 -72.20      0.00      0.00
  60                7731.31      5.48      3.33
  101               3289.92      4.15      4.35
  103               1739.64      2.78      1.74
  105               1345.14      3.82      4.39
  107                404.21      1.15      0.47
  109               1595.79      2.55      1.48
  111               1345.87      3.82      4.39
  112                213.68      0.61      0.15
  113                681.37      1.93      1.25
  114                222.61      1.42      1.13
  115                345.19      2.20      2.55
  116                882.37      2.50      2.01
  117               -794.73      2.25      1.66
  119               -147.37      0.42      0.07
  120               -628.75      1.78      1.07
  121               -294.89      0.84      0.26
  122                108.51      0.69      0.30
  123               6018.67      2.73      0.70
  125               5895.31      2.68      0.67
  129               -276.83      0.20      0.01
  131               -438.52      0.31      0.02
  133                613.26      0.63      0.09
  135                155.67      0.11      0.00
  137                 46.17      0.07      0.00
  145                109.50      0.70      0.30
  147                103.14      0.66      0.27
  149                 -6.70      0.04      0.00
  151                 -0.00      0.00      0.00
  153                -85.81      0.24      0.03
  155                -55.97      0.16      0.01
  159                 46.73      0.13      0.01
  161                 17.50      0.11      0.01
  163                -64.73      0.18      0.02
  169                112.43      0.72      0.32
  171                 73.81      0.21      0.02
  173               6383.39      2.90      0.78
  175               6327.46      2.87      0.77
  177               6282.84      2.85      0.76
  179               6388.26      2.90      0.78
  180                  2.81      0.01      0.00
  181                  2.81      0.01      0.00
  183               6499.99      2.95      0.80
  185                -15.72      0.10      0.01
  186                496.66      3.17      5.00
  187               6345.37      2.88      0.77
  189               4949.30      2.25      0.49
  191              -1353.58      0.96      0.15
  193              -1856.00      1.32      0.27
  195               -315.94      0.90      0.30
  197               -378.76      1.07      0.42
  199               -365.10      1.04      0.39
  201                 13.66      0.04      0.00
  202                619.25      3.95      7.52
  203                150.29      0.96      0.55
  204                619.25      1.76      1.04
  205                496.66      1.41      0.69
  207                515.39      1.46      0.74
  209               -103.53      0.66      0.27
  211                138.90      0.39      0.07
  213                600.19      1.70      0.98
  215                575.99      1.63      0.91
  217                 17.84      0.05      0.00
  219                122.48      0.35      0.05
  221               -122.48      0.78      0.37
  223                706.49      2.00      1.33
  225                724.89      2.06      1.40
  229               4949.30      3.51      1.44
  231               4709.83      3.34      1.31
  233               4592.00      3.26      1.46
  235                110.60      0.31      0.04
  237                539.30      1.53      0.81
  238                653.97      1.86      1.15
  239                189.61      0.54      0.12
  240                653.97      1.86      1.15
  241                653.97      1.86      1.15
  243                653.03      1.04      0.28
  245                313.25      0.50      0.07
  247                194.97      0.31      0.03
  249                 95.41      0.15      0.01
  251                 44.63      0.09      0.00
  257                 24.62      0.07      0.00
  261                103.22      0.66      0.27
  263                 17.80      0.05      0.00
  269                330.42      0.94      0.33
  271                -16.11      0.10      0.01
  273                329.67      0.94      0.32
  275                108.33      0.31      0.04
  277                  4.69      0.01      0.00
  281                103.64      0.42      0.09
  283                173.16      0.49      0.10
  285                -86.08      0.24      0.03
  287                113.72      0.46      0.11
  289                -72.20      0.29      0.05
  291                 58.88      0.24      0.03
  293                -60.98      0.39      0.10
  295                 87.07      0.25      0.03
  297               -225.35      1.44      1.16
  299               -130.83      0.84      0.42
  301               -130.83      0.84      0.42
  303                -94.52      0.60      0.23
  305               -569.38      1.62      0.89
  307               -663.90      1.88      1.19
  309               -124.72      0.80      0.39
  311                700.71      1.99      1.31
  313                -47.58      0.13      0.01
  315              -1540.06      1.09      0.19
  317                119.96      0.77      0.36
  319                 -9.36      0.03      0.00
  321               6375.27      2.89      0.78
  323                 69.65      0.20      0.02
  325                186.48      1.19      0.81
  329               7731.31      3.51      1.12
  330               7731.31      3.51      1.11
  333               7731.31      3.51      1.13
  10                3289.92      0.00    -75.00  Pump
  335                  0.00      0.00      0.00  Pump
   
   
  Link Results at 11:00:00 hrs:
  ----------------------------------------------
                       Flow  Velocity  Headloss
  Link                  gpm       fps   /1000ft
  ----------------------------------------------
  20                 943.68      0.04      0.00
  40                 189.38      0.01      0.00
  50                  14.76      0.00      0.00
  60                7759.91      5.50      3.36
  101               3311.52      4.18      4.40
  103               1749.92      2.79      1.76
  105               1335.55      3.79      4.33
  107                401.90      1.14      0.47
  109               1591.42      2.54      1.48
  111               1316.05      3.73      4.22
  112                222.07      0.63      0.16
  113                663.48      1.88      1.19
  114                217.88      1.39      1.09
  115                336.88      2.15      2.44
  116                857.54      2.43      1.91
  117               -772.56      2.19      1.57
  119               -165.07      0.47      0.09
  120               -591.46      1.68      0.96
  121               -255.95      0.73      0.20
  122                124.03      0.79      0.38
  123               6221.08      2.82      0.74
  125               5941.91      2.70      0.68
  129               -452.74      0.32      0.02
  131               -658.62      0.47      0.04
  133                943.68      0.96      0.19
  135                264.04      0.19      0.01
  137                 50.87      0.08      0.00
  145                213.17      1.36      1.04
  147                206.16      1.32      0.98
  149               -367.38      2.34      2.86
  151               -360.00      2.30      2.75
  153                172.94      0.49      0.10
  155                205.82      0.58      0.14
  159               -215.99      0.61      0.15
  161               -248.20      1.58      1.38
  163                -99.05      0.28      0.04
  169                151.62      0.97      0.56
  171                321.08      0.91      0.31
  173               6281.86      2.85      0.76
  175               6220.23      2.82      0.74
  177               6171.06      2.80      0.73
  179               6263.68      2.84      0.75
  180                  3.09      0.01      0.00
  181                  3.09      0.01      0.00
  183               6366.22      2.89      0.77
  185                -17.33      0.11      0.01
  186                485.54      3.10      4.79
  187               6198.17      2.81      0.74
  189               4973.46      2.26      0.49
  191              -1177.89      0.84      0.12
  193              -1801.00      1.28      0.26
  195               -443.91      1.26      0.56
  197               -513.13      1.46      0.74
  199               -323.75      0.92      0.31
  201                189.38      0.54      0.12
  202                621.23      3.97      7.56
  203                166.22      1.06      0.66
  204                621.23      1.76      1.05
  205                485.54      1.38      0.66
  207                489.97      1.39      0.68
  209                -92.54      0.59      0.22
  211                150.73      0.43      0.08
  213                578.08      1.64      0.92
  215                554.33      1.57      0.85
  217                  9.92      0.03      0.00
  219                111.42      0.32      0.04
  221               -111.42      0.71      0.31
  223                685.46      1.94      1.26
  225                705.73      2.00      1.33
  229               4973.46      3.53      1.45
  231               4721.49      3.35      1.32
  233               4613.00      3.27      1.47
  235                109.98      0.31      0.04
  237                533.29      1.51      0.79
  238                626.26      1.78      1.07
  239                175.55      0.50      0.10
  240                626.26      1.78      1.07
  241                626.26      1.78      1.07
  243                625.23      1.00      0.26
  245                321.79      0.51      0.08
  247                214.83      0.34      0.04
  249                105.12      0.17      0.01
  251                 49.17      0.10      0.00
  257                 27.13      0.08      0.00
  261                 90.38      0.58      0.21
  263                 19.61      0.06      0.00
  269                293.12      0.83      0.26
  271                  5.61      0.04      0.00
  273                268.93      0.76      0.22
  275                 84.04      0.24      0.03
  277                  5.16      0.01      0.00
  281                 78.88      0.32      0.06
  283                131.80      0.37      0.06
  285                -70.70      0.20      0.02
  287                 65.83      0.27      0.04
  289                 14.76      0.06      0.00
  291                 64.88      0.27      0.04
  293                -32.35      0.21      0.03
  295                 61.10      0.17      0.01
  297               -211.47      1.35      1.03
  299               -124.53      0.79      0.39
  301               -124.53      0.79      0.39
  303                -86.94      0.55      0.20
  305               -561.10      1.59      0.87
  307               -648.04      1.84      1.13
  309               -116.85      0.75      0.34
  311                671.18      1.90      1.21
  313                -28.47      0.08      0.00
  315              -1357.09      0.96      0.15
  317                120.14      0.77      0.36
  319                -10.16      0.03      0.00
  321               6249.37      2.84      0.75
  323                 55.41      0.16      0.01
  325                179.20      1.14      0.76
  329               7759.91      3.52      1.13
  330               7759.91      3.52      1.13
  333               7759.91      3.52      1.13
  10                3311.52      0.00    -74.67  Pump
  335                  0.00      0.00      0.00  Pump
   
   
  Link Results at 12:00:00 hrs:
  ----------------------------------------------
                       Flow  Velocity  Headloss
  Link                  gpm       fps   /1000ft
  ----------------------------------------------
  20                 841.12      0.04      0.00
  40                 133.92      0.01      0.00
  50                  -3.40      0.00      0.00
  60                7781.19      5.52      3.37
  101               3310.99      4.17      4.40
  103               1749.39      2.79      1.76
  105               1341.26      3.80      4.37
  107                402.91      1.14      0.47
  109               1594.88      2.54      1.48
  111               1326.46      3.76      4.28
  112                212.70      0.60      0.14
  113                666.16      1.89      1.19
  114                217.93      1.39      1.09
  115                339.53      2.17      2.47
  116                860.88      2.44      1.92
  117               -781.32      2.22      1.60
  119               -151.54      0.43      0.08
  120               -610.94      1.73      1.02
  121               -275.35      0.78      0.23
  122                117.71      0.75      0.35
  123               6154.68      2.79      0.73
  125               5963.19      2.71      0.69
  129               -357.50      0.25      0.01
  131               -560.05      0.40      0.03
  133                841.12      0.86      0.15
  135                260.58      0.18      0.01
  137                 49.59      0.08      0.00
  145                210.99      1.35      1.02
  147                204.16      1.30      0.96
  149               -367.19      2.34      2.86
  151               -360.00      2.30      2.75
  153                174.46      0.49      0.10
  155                206.51      0.59      0.14
  159               -216.43      0.61      0.15
  161               -247.83      1.58      1.38
  163                -98.42      0.28      0.03
  169                149.66      0.96      0.54
  171                317.01      0.90      0.30
  173               6244.31      2.83      0.75
  175               6184.23      2.81      0.73
  177               6136.30      2.79      0.72
  179               6233.21      2.83      0.74
  180                  3.02      0.01      0.00
  181                  3.02      0.01      0.00
  183               6338.19      2.88      0.77
  185                -16.89      0.11      0.01
  186                483.77      3.09      4.76
  187               6176.66      2.80      0.73
  189               4893.94      2.22      0.48
  191              -1237.09      0.88      0.13
  193              -1819.00      1.29      0.26
  195               -402.11      1.14      0.47
  197               -469.59      1.33      0.63
  199               -335.67      0.95      0.34
  201                133.92      0.38      0.06
  202                611.80      3.91      7.35
  203                157.78      1.01      0.60
  204                611.80      1.74      1.02
  205                483.77      1.37      0.66
  207                493.45      1.40      0.69
  209                -96.78      0.62      0.24
  211                144.64      0.41      0.07
  213                580.55      1.65      0.93
  215                557.03      1.58      0.86
  217                 13.02      0.04      0.00
  219                115.24      0.33      0.05
  221               -115.24      0.74      0.33
  223                688.58      1.95      1.27
  225                708.35      2.01      1.34
  229               4893.94      3.47      1.41
  231               4645.09      3.29      1.28
  233               4531.00      3.21      1.42
  235                110.44      0.31      0.04
  237                528.24      1.50      0.78
  238                628.27      1.78      1.07
  239                180.52      0.51      0.11
  240                628.27      1.78      1.07
  241                628.27      1.78      1.07
  243                627.26      1.00      0.26
  245                318.15      0.51      0.07
  247                209.41      0.33      0.03
  249                102.47      0.16      0.01
  251                 47.93      0.10      0.00
  257                 26.45      0.08      0.00
  261                 92.56      0.59      0.22
  263                 19.12      0.05      0.00
  269                299.06      0.85      0.27
  271                  1.00      0.01      0.00
  273                279.95      0.79      0.24
  275                 88.59      0.25      0.03
  277                  5.03      0.01      0.00
  281                 83.55      0.34      0.06
  283                139.61      0.40      0.07
  285                -73.43      0.21      0.02
  287                 75.35      0.31      0.05
  289                 -3.40      0.01      0.00
  291                 63.24      0.26      0.04
  293                -38.15      0.24      0.04
  295                 66.18      0.19      0.02
  297               -217.88      1.39      1.09
  299               -127.34      0.81      0.40
  301               -127.34      0.81      0.40
  303                -90.54      0.58      0.21
  305               -563.44      1.60      0.88
[...]
  240                243.49      0.69      0.19
  241                243.49      0.69      0.19
  243                242.65      0.39      0.05
  245                209.69      0.33      0.03
  247                173.31      0.28      0.02
  249                 84.81      0.14      0.01
  251                 39.67      0.08      0.00
  257                 21.89      0.06      0.00
  261                 23.00      0.15      0.02
  263                 15.82      0.04      0.00
  269                 24.64      0.07      0.00
  271                 54.44      0.35      0.08
  273                -44.78      0.13      0.01
  275                -30.25      0.09      0.00
  277                  4.17      0.01      0.00
  281                -34.41      0.14      0.01
  283                -57.36      0.16      0.01
  285                 11.84      0.03      0.00
  287               -113.82      0.46      0.11
  289                273.65      1.12      0.56
  291                 52.34      0.21      0.03
  293                 68.71      0.44      0.13
  295                -45.52      0.13      0.01
  297                377.59      2.41      3.01
  299                181.42      1.16      0.77
  301                181.42      1.16      0.77
  303                196.17      1.25      0.89
  305                115.03      0.33      0.05
  307                311.20      0.88      0.29
  309                149.17      0.95      0.54
  311                 -1.72      0.00      0.00
  313                318.97      0.90      0.31
  315              -1087.45      0.77      0.10
  317                105.35      0.67      0.28
  319                -49.51      0.14      0.01
  321               6013.54      2.73      0.70
  323               -206.01      0.58      0.14
  325                116.54      0.74      0.34
  329               8165.07      3.71      1.24
  330               8165.07      3.71      1.25
  333               8165.07      3.71      1.24
  10                   0.00      0.00      0.00  Pump
  335                  0.00      0.00      0.00  Pump
   
   
  Link Results at 22:00:00 hrs:
  ----------------------------------------------
                       Flow  Velocity  Headloss
  Link                  gpm       fps   /1000ft
  ----------------------------------------------
  20               -1708.32      0.07      0.00
  40                 367.08      0.02      0.00
  50                 270.43      0.01      0.00
  60               13191.47      9.36      8.97
  101                  0.00      0.00      0.00
  103                147.08      0.23      0.02
  105               -382.62      1.09      0.43
  107                 24.49      0.07      0.00
  109                -18.09      0.03      0.00
  111               -305.03      0.87      0.28
  112                442.39      1.25      0.56
  113                -91.51      0.26      0.03
  114                108.60      0.69      0.30
  115                -43.26      0.28      0.05
  116                 -7.73      0.02      0.00
  117                574.97      1.63      0.91
  119               -658.85      1.87      1.17
  120               1049.56      2.98      2.77
  121                938.79      2.66      2.25
  122                330.21      2.11      2.35
  123               8742.49      3.97      1.39
  125              11351.47      5.15      2.26
  129               2227.15      1.58      0.38
  131               1993.18      1.41      0.31
  133              -1708.32      1.74      0.57
  135                262.96      0.19      0.01
  137                 53.01      0.08      0.00
  145                209.95      1.34      1.01
  147                202.65      1.29      0.95
  149               -367.69      2.35      2.86
  151               -360.00      2.30      2.75
  153                177.25      0.50      0.10
  155                211.51      0.60      0.14
  159               -222.12      0.63      0.16
  161               -255.68      1.63      1.46
  163               -122.65      0.35      0.05
  169                177.42      1.13      0.74
  171                312.19      0.89      0.29
  173               7162.34      3.25      0.96
  175               7098.12      3.22      0.95
  177               7046.88      3.20      0.93
  179               6800.09      3.09      0.88
  180                  3.22      0.01      0.00
  181                  3.22      0.01      0.00
  183               6597.98      2.99      0.83
  185                -18.05      0.12      0.01
  186                321.75      2.05      2.24
  187               6041.68      2.74      0.70
  189               4689.91      2.13      0.44
  191              -1303.00      0.92      0.14
  193              -1671.00      1.19      0.22
  195               -245.80      0.70      0.19
  197               -317.93      0.90      0.30
  199                 49.14      0.14      0.01
  201                367.08      1.04      0.40
  202                547.99      3.50      6.00
  203                258.05      1.65      1.49
  204                547.99      1.55      0.83
  205                321.75      0.91      0.31
  207                208.91      0.59      0.14
  209                161.43      1.03      0.62
  211                538.24      1.53      0.80
  213                160.32      0.45      0.09
  215                 88.12      0.25      0.03
  217               -230.13      0.65      0.17
  219               -227.20      0.64      0.16
  221                227.20      1.45      1.17
  223                 31.74      0.09      0.00
  225                 52.87      0.15      0.01
  229               4689.91      3.33      1.30
  231               4440.10      3.15      1.18
  233               4470.00      3.17      1.39
  235                101.85      0.29      0.04
  237                456.70      1.30      0.59
  238                397.54      1.13      0.46
  239                 26.88      0.08      0.00
  240                397.54      1.13      0.46
  241                397.54      1.13      0.46
  243                396.46      0.63      0.11
  245                280.80      0.45      0.06
  247                223.86      0.36      0.04
  249                109.54      0.17      0.01
  251                 51.24      0.11      0.00
  257                 28.27      0.08      0.00
  261                 39.65      0.25      0.05
  263                 20.44      0.06      0.00
  269                104.91      0.30      0.04
  271                 60.37      0.39      0.10
  273                 25.19      0.07      0.00
  275                 -7.98      0.02      0.00
  277                  5.38      0.02      0.00
  281                -13.36      0.05      0.00
  283                -22.15      0.06      0.00
  285                 -6.07      0.02      0.00
  287                -94.56      0.39      0.08
  289                270.43      1.10      0.55
  291                 67.60      0.28      0.04
  293                 58.18      0.37      0.09
  295                -28.22      0.08      0.00
  297                440.99      2.81      4.01
  299                211.87      1.35      1.03
  301                211.87      1.35      1.03
  303                229.12      1.46      1.19
  305                133.97      0.38      0.06
  307                363.09      1.03      0.39
  309                187.21      1.19      0.82
  311                -99.09      0.28      0.04
  313                416.04      1.18      0.50
  315              -1425.20      1.01      0.17
  317                112.10      0.72      0.32
  319                -10.24      0.03      0.00
  321               6785.18      3.08      0.87
  323                -85.22      0.24      0.03
  325                122.20      0.78      0.37
  329              13191.47      5.99      3.02
  330                  0.00      0.00      0.00
  333                 -0.00      0.00      0.00
  10                   0.00      0.00      0.00  Pump
  335              13191.47      0.00    -93.15  Pump
   
   
  Link Results at 23:00:00 hrs:
  ----------------------------------------------
                       Flow  Velocity  Headloss
  Link                  gpm       fps   /1000ft
  ----------------------------------------------
  20                -907.45      0.04      0.00
  40                 701.41      0.03      0.00
  50                 457.74      0.02      0.00
  60               13205.64      9.37      8.99
  101                  0.00      0.00      0.00
  103                122.83      0.20      0.01
  105               -440.05      1.25      0.55
  107                -12.38      0.04      0.00
  109                -99.61      0.16      0.01
  111               -486.05      1.38      0.67
  112                421.75      1.20      0.51
  113               -198.15      0.56      0.13
  114                 85.20      0.54      0.19
  115               -103.63      0.66      0.27
  116               -146.37      0.42      0.07
  117                653.74      1.85      1.15
  119               -697.59      1.98      1.30
  120               1185.55      3.36      3.47
  121               1052.90      2.99      2.79
  122                362.36      2.31      2.79
  123               9384.49      4.26      1.59
  125              11346.64      5.15      2.26
  129               1530.27      1.09      0.19
  131               1251.38      0.89      0.13
  133               -907.45      0.93      0.18
  135                314.44      0.22      0.01
  137                 71.39      0.11      0.00
  145                243.05      1.55      1.33
  147                233.21      1.49      1.23
  149               -370.35      2.36      2.90
  151               -360.00      2.30      2.75
  153                153.59      0.44      0.08
  155                199.73      0.57      0.13
  159               -214.01      0.61      0.15
  161               -259.22      1.65      1.50
  163               -128.97      0.37      0.06
  169                202.74      1.29      0.95
  171                371.53      1.05      0.41
  173               7533.28      3.42      1.06
  175               7446.79      3.38      1.04
  177               7377.78      3.35      1.02
  179               7089.10      3.22      0.95
  180                  4.34      0.01      0.00
  181                  4.34      0.01      0.00
  183               6852.18      3.11      0.89
  185                -24.32      0.16      0.02
  186                279.49      1.78      1.72
  187               6213.30      2.82      0.74
  189               4870.75      2.21      0.47
  191              -1276.86      0.91      0.14
  193              -1668.00      1.18      0.22
  195               -283.59      0.80      0.25
  197               -380.73      1.08      0.42
  199                320.68      0.91      0.31
  201                701.41      1.99      1.31
  202                549.90      3.51      6.03
  203                313.24      2.00      2.13
  204                549.90      1.56      0.84
  205                279.49      0.79      0.24
  207                 -7.44      0.02      0.00
  209                229.07      1.46      1.19
  211                614.56      1.74      1.03
  213                 50.42      0.14      0.01
  215               -105.14      0.30      0.04
  217               -318.83      0.90      0.31
  219               -262.29      0.74      0.21
  221                262.29      1.67      1.53
  223               -131.64      0.37      0.06
  225               -103.18      0.29      0.04
  229               4870.75      3.45      1.40
  231               4528.02      3.21      1.22
  233               4480.00      3.18      1.39
  235                143.47      0.41      0.07
  237                471.20      1.34      0.63
  238                441.86      1.25      0.56
  239                 86.54      0.25      0.03
  240                441.86      1.25      0.56
  241                441.86      1.25      0.56
  243                440.40      0.70      0.14
  245                366.22      0.58      0.10
  247                301.49      0.48      0.07
  249                147.53      0.24      0.02
  251                 69.00      0.14      0.01
  257                 38.08      0.11      0.01
  261                 41.45      0.26      0.05
  263                 27.52      0.08      0.00
  269                 59.70      0.17      0.01
  271                 93.25      0.60      0.23
  273                -59.61      0.17      0.01
  275                -45.77      0.13      0.01
  277                  7.25      0.02      0.00
  281                -53.01      0.22      0.03
  283                -88.34      0.25      0.03
  285                 15.88      0.05      0.00
  287               -186.43      0.76      0.27
  289                457.74      1.87      1.45
  291                 91.05      0.37      0.07
  293                112.81      0.72      0.32
  295                -72.46      0.21      0.02
  297                495.01      3.16      4.97
  299                238.02      1.52      1.28
  301                238.02      1.52      1.28
  303                256.99      1.64      1.48
  305                158.73      0.45      0.08
  307                415.72      1.18      0.50
  309                216.85      1.38      1.08
  311               -322.00      0.91      0.31
  313                507.00      1.44      0.72
  315              -1384.41      0.98      0.16
  317                113.02      0.72      0.32
  319                 30.45      0.09      0.00
  321               7069.03      3.21      0.94
  323                -26.48      0.08      0.00
  325                107.56      0.69      0.29
  329              13205.64      5.99      3.03
  330                  0.00      0.00      0.00
  333                 -0.00      0.00      0.00
  10                   0.00      0.00      0.00  Pump
  335              13205.64      0.00    -93.02  Pump
   
   
  Link Results at 24:00:00 hrs:
  ----------------------------------------------
                       Flow  Velocity  Headloss
  Link                  gpm       fps   /1000ft
  ----------------------------------------------
  20               -2184.30      0.09      0.00
  40                -262.50      0.01      0.00
  50                 140.04      0.01      0.00
  60               13087.22      9.28      8.84
  101                  0.00      0.00      0.00
  103                167.59      0.27      0.02
  105               -422.12      1.20      0.51
  107                 31.99      0.09      0.00
  109                -10.90      0.02      0.00
  111               -320.97      0.91      0.31
  112                497.32      1.41      0.70
  113                -82.10      0.23      0.02
  114                123.98      0.79      0.38
  115                -41.23      0.26      0.05
  116                 15.07      0.04      0.00
  117                635.51      1.80      1.09
  119               -732.35      2.08      1.42
  120               1157.64      3.28      3.32
  121               1038.00      2.94      2.72
  122                367.94      2.35      2.87
  123               9812.39      4.45      1.73
  125              13087.22      5.94      2.94
  129               2851.10      2.02      0.60
  131               2573.55      1.83      0.50
  133              -2184.30      2.23      0.89
  135                365.58      0.26      0.01
  137                 57.28      0.09      0.00
  145                308.30      1.97      2.07
  147                300.41      1.92      1.97
  149               -628.31      4.01      7.72
  151               -620.00      3.96      7.54
  153                341.10      0.97      0.35
  155                378.12      1.07      0.42
  159               -389.58      1.11      0.44
  161               -425.86      2.72      3.76
  163               -157.26      0.45      0.08
  169                216.45      1.38      1.07
  171                462.19      1.31      0.61
  173               7956.54      3.61      1.17
  175               7887.14      3.58      1.15
  177               7831.77      3.55      1.14
  179               7559.70      3.43      1.06
  180                  3.48      0.01      0.00
  181                  3.48      0.01      0.00
  183               7336.64      3.33      1.01
  185                -19.51      0.12      0.01
  186                347.44      2.22      2.58
  187               6712.10      3.05      0.85
  189               4855.79      2.20      0.47
  191              -1803.59      1.28      0.26
  193              -1637.00      1.16      0.22
  195                308.73      0.88      0.29
  197                230.78      0.65      0.17
  199                -31.72      0.09      0.00
  201               -262.50      0.74      0.21
  202                565.23      3.61      6.35
  203                252.15      1.61      1.42
  204                565.23      1.60      0.88
  205                347.44      0.99      0.36
  207                283.88      0.81      0.25
  209                165.61      1.06      0.65
  211                605.03      1.72      1.00
  213                181.84      0.52      0.11
  215                131.20      0.37      0.06
  217               -246.17      0.70      0.19
  219               -250.90      0.71      0.20
  221                250.90      1.60      1.41
  223                 45.42      0.13      0.01
  225                 68.25      0.19      0.02
  229               4855.79      3.44      1.39
  231               4553.07      3.23      1.23
  233               4439.00      3.15      1.37
  235                142.83      0.41      0.07
  237                506.39      1.44      0.72
  238                581.79      1.65      0.93
  239                168.38      0.48      0.09
  240                581.79      1.65      0.93
  241                581.79      1.65      0.93
  243                580.62      0.93      0.23
  245                333.18      0.53      0.08
  247                241.91      0.39      0.05
  249                118.38      0.19      0.01
  251                 55.37      0.12      0.01
  257                 30.55      0.09      0.00
  261                 72.59      0.46      0.14
  263                 22.08      0.06      0.00
  269                235.83      0.67      0.17
  271                 35.50      0.23      0.04
  273                179.41      0.51      0.11
  275                 48.42      0.14      0.01
  277                  5.82      0.02      0.00
  281                 42.61      0.17      0.02
  283                 71.21      0.20      0.02
  285                -48.23      0.14      0.01
  287                 -3.47      0.01      0.00
  289                140.04      0.57      0.16
  291                 73.06      0.30      0.05
  293                  9.39      0.06      0.00
  295                 22.98      0.07      0.00
  297                487.59      3.11      4.83
  299                234.26      1.50      1.24
  301                234.26      1.50      1.24
  303                253.33      1.62      1.44
  305                147.92      0.42      0.07
  307                401.25      1.14      0.47
  309                206.95      1.32      0.99
  311                -75.75      0.21      0.02
  313                462.89      1.31      0.61
  315              -1945.73      1.38      0.30
  317                114.09      0.73      0.33
  319                 28.74      0.08      0.00
  321               7543.59      3.42      1.06
  323                 54.29      0.15      0.01
  325                142.14      0.91      0.49
  329              13087.22      5.94      2.98
  330                  0.00      0.00      0.00
  333                 -0.00      0.00      0.00
  10                   0.00      0.00      0.00  Pump
  335              13087.22      0.00    -94.07  Pump
   
  Analysis ended Wed Jul 06 14:19:50 2016
