  Page 1                                    Tue Dec 15 12:34:58 2015

  ******************************************************************
  *                           E P A N E T                          *
  *                   Hydraulic and Water Quality                  *
  *                   Analysis for Pipe Networks                   *
  *                         Version 2.00.12                        *
  ******************************************************************
  
  Analysis begun Tue Dec 15 12:34:58 2015

   
  Node Results:
  ----------------------------------------------
                     Demand      Head  Pressure
  Node                  gpm        ft       psi
  ----------------------------------------------
  2                    0.00     99.97     43.32
  3                    0.00     99.97     43.32
  4                   23.00     99.96     43.31
  5                   50.00     99.96     43.31
  1                  -73.00    100.00      0.00  Reservoir
   
   
  Link Results:
  ----------------------------------------------
                       Flow  Velocity  Headloss
  Link                  gpm       fps   /1000ft
  ----------------------------------------------
  1                   73.00      0.21      0.03
  2                   35.20      0.10      0.01
  3                   12.20      0.03      0.00
  4                  -37.80      0.11      0.01
  5                   73.00      0.21      0.00  PRV
   
  Analysis ended Tue Dec 15 12:34:58 2015
